data_findsym-STRUC-3
# This file was generated by FINDSYM    
# Harold T. Stokes, Branton J. Campbell, Dorian M. Hatch
# Brigham Young University, Provo, Utah, USA
                                        
data_findsym-output                     
                                        
_symmetry_space_group_name_H-M 'C 1 2 1'
_symmetry_Int_Tables_number 5           
                                        
_cell_length_a      24.51898            
_cell_length_b      16.83820            
_cell_length_c      18.96300            
_cell_angle_alpha   90.00000            
_cell_angle_beta   107.84736            
_cell_angle_gamma   90.00000            
                                        
loop_                                   
_space_group_symop_operation_xyz        
x,y,z                                   
-x,y,-z                                 
x+1/2,y+1/2,z                           
-x+1/2,y+1/2,-z                         
                                        
loop_                                   
_atom_site_label                        
_atom_site_type_symbol                  
_atom_site_fract_x                      
_atom_site_fract_y                      
_atom_site_fract_z                      
_atom_site_occupancy                    
   C    C   0.3807   0.0846   0.2160   1.0000
   C    C   0.4261   0.1494   0.2478   1.0000
   C    C   0.4873   0.1231   0.2525   1.0000
   C    C   0.3676   0.0735   0.1316   1.0000
   C    C   0.3235   0.0116   0.0993   1.0000
   C    C  -0.4675   0.1703   0.3116   1.0000
   C    C   0.4985   0.1361   0.1788   1.0000
   C    C   0.3078   0.0649   0.2806   1.0000
   C    C   0.2709   0.0319   0.0479   1.0000
   C    C  -0.1655   0.4316   0.1192   1.0000
   C    C   0.2506   0.0911   0.2898   1.0000
   C    C  -0.2583   0.3940   0.0358   1.0000
   C    C  -0.2693   0.4740   0.0160   1.0000
   C    C  -0.2059   0.3736   0.0883   1.0000
   C    C   0.2445   0.0605   0.3625   1.0000
   C    C  -0.3008   0.3320   0.0023   1.0000
   C    C  -0.4766   0.0641   0.0828   1.0000
   C    C  -0.3217   0.3231  -0.0752   1.0000
   C    C  -0.3208   0.2806   0.0469   1.0000
   C    C   0.1853   0.0757   0.3702   1.0000
   C    C  -0.4139   0.0861   0.0974   1.0000
   C    C  -0.3610   0.2649  -0.1062   1.0000
   C    C  -0.3607   0.2221   0.0153   1.0000
   C    C  -0.3811   0.2142  -0.0608   1.0000
   C    C   0.2751   0.3520   0.3770   1.0000
   C    C   0.3128   0.3944   0.4433   1.0000
   C    C   0.3585   0.4424   0.4371   1.0000
   C    C   0.3954   0.4781   0.4991   1.0000
   C    C   0.3078   0.3851  -0.4851   1.0000
   C    C   0.3422   0.4195  -0.4246   1.0000
   C    C   0.3890   0.4678  -0.4299   1.0000
   C    C   0.4368   0.4757  -0.2948   1.0000
   C    C  -0.0797   0.0334  -0.2424   1.0000
   C    C  -0.0771   0.1588  -0.1964   1.0000
   C    C  -0.0547   0.2426  -0.1890   1.0000
   C    C  -0.1163   0.2641  -0.1092   1.0000
   C    C  -0.1164   0.1373  -0.1568   1.0000
   C    C  -0.1178   0.0106  -0.2036   1.0000
   C    C  -0.3615   0.0486   0.4233   1.0000
   C    C   0.1819   0.4820   0.4457   1.0000
   C    C   0.1526   0.4007   0.4255   1.0000
   C    C   0.1966   0.3344   0.4386   1.0000
   C    C   0.1712   0.2567   0.4508   1.0000
   O    O  -0.4912   0.0653   0.1507   1.0000
   O    O   0.4980   0.1994   0.1460   1.0000
   O    O   0.3347   0.0067   0.3164   1.0000
   O    O   0.1857   0.0704   0.4399   1.0000
   O    O   0.1446   0.0913   0.3216   1.0000
   O    O   0.2898   0.3394   0.3214   1.0000
   O    O  -0.0202   0.2703  -0.2177   1.0000
   O    O   0.1316   0.2217   0.4076   1.0000
   O    O   0.1979   0.2259  -0.4790   1.0000
   O    O  -0.3885   0.0671   0.3619   1.0000
   O    O  -0.3677   0.0868   0.4840   1.0000
   H    H   0.3963   0.0272   0.2441   1.0000
   H    H   0.4250   0.1661   0.3030   1.0000
   H    H   0.4153   0.2041   0.2150   1.0000
   H    H   0.4922   0.0588   0.2658   1.0000
   H    H   0.4077   0.0578   0.1195   1.0000
   H    H   0.3544   0.1305   0.1037   1.0000
   H    H   0.3044   0.1526   0.2029   1.0000
   H    H  -0.4703   0.2334   0.3013   1.0000
   H    H  -0.4724   0.1595   0.3668   1.0000
   H    H  -0.4246   0.1507   0.3150   1.0000
   H    H   0.2614   0.0944   0.0324   1.0000
   H    H  -0.1245   0.4147   0.1595   1.0000
   H    H   0.2466   0.1562   0.2866   1.0000
   H    H   0.2156   0.0686   0.2425   1.0000
   H    H  -0.3102   0.4905  -0.0245   1.0000
   H    H  -0.1969   0.3112   0.1040   1.0000
   H    H  -0.2464   0.4964   0.3694   1.0000
   H    H   0.2762   0.0887   0.4106   1.0000
   H    H   0.4944   0.1035   0.0417   1.0000
   H    H  -0.4854   0.0015   0.0649   1.0000
   H    H  -0.3062   0.3630  -0.1106   1.0000
   H    H  -0.3050   0.2874   0.1074   1.0000
   H    H  -0.3859   0.0490   0.1410   1.0000
   H    H  -0.4062   0.1481   0.1159   1.0000
   H    H  -0.4004   0.0794   0.0478   1.0000
   H    H  -0.3766   0.2579  -0.1663   1.0000
   H    H  -0.3760   0.1829   0.0504   1.0000
   H    H  -0.4118   0.1680  -0.0857   1.0000
   H    H   0.1470   0.0776   0.4450   1.0000
   H    H   0.3647   0.4503   0.3828   1.0000
   H    H  -0.0691   0.0150   0.4936   1.0000
   H    H   0.2747   0.3472  -0.4786   1.0000
   H    H   0.3350   0.4116  -0.3708   1.0000
   H    H  -0.0422   0.0371  -0.3795   1.0000
   H    H   0.4131   0.4194  -0.2974   1.0000
   H    H   0.4829   0.4603  -0.2715   1.0000
   H    H  -0.0623   0.3504  -0.1380   1.0000
   H    H  -0.1210   0.3759  -0.0588   1.0000
   H    H  -0.1632   0.3022  -0.0401   1.0000
   H    H   0.3655   0.4483  -0.2080   1.0000
   H    H   0.2157   0.4906   0.4203   1.0000
   H    H   0.2029   0.4873  -0.4942   1.0000
   H    H   0.1221   0.3893   0.4565   1.0000
   H    H   0.1272   0.3994   0.3667   1.0000
   H    H   0.2296   0.3482   0.4892   1.0000
   H    H   0.2169   0.2665  -0.4449   1.0000
   H    H   0.1963   0.2993   0.3318   1.0000
   H    H  -0.3415   0.0668  -0.4699   1.0000
   N    N   0.3276   0.1060   0.2327   1.0000
   N    N  -0.0758   0.0082  -0.3705   1.0000
   N    N  -0.0582   0.1083  -0.2371   1.0000
   N    N  -0.0775   0.2924  -0.1430   1.0000
   N    N  -0.1365   0.3204  -0.0689   1.0000
   N    N  -0.1351   0.1923  -0.1136   1.0000
   N    N  -0.1360   0.0608  -0.1616   1.0000
   N    N   0.2225   0.3269   0.3796   1.0000
