data_findsym-STRUC-9
# This file was generated by FINDSYM    
# Harold T. Stokes, Branton J. Campbell, Dorian M. Hatch
# Brigham Young University, Provo, Utah, USA
                                        
data_findsym-output                     
                                        
_symmetry_space_group_name_H-M 'C 1 2 1'
_symmetry_Int_Tables_number 5           
                                        
_cell_length_a      28.64797            
_cell_length_b      15.20300            
_cell_length_c      19.08800            
_cell_angle_alpha   90.00000            
_cell_angle_beta    75.56793            
_cell_angle_gamma   90.00000            
                                        
loop_                                   
_space_group_symop_operation_xyz        
x,y,z                                   
-x,y,-z                                 
x+1/2,y+1/2,z                           
-x+1/2,y+1/2,-z                         
                                        
loop_                                   
_atom_site_label                        
_atom_site_type_symbol                  
_atom_site_fract_x                      
_atom_site_fract_y                      
_atom_site_fract_z                      
_atom_site_occupancy                    
   C    C  -0.3712   0.0514   0.1518   1.0000
   C    C  -0.3822   0.1415   0.1222   1.0000
   C    C  -0.3448   0.1685   0.0527   1.0000
   C    C   0.1177   0.4741   0.1054   1.0000
   C    C   0.1276   0.3854   0.1339   1.0000
   C    C  -0.3426   0.2690   0.0427   1.0000
   C    C  -0.3571   0.1276  -0.0138   1.0000
   C    C  -0.3798   0.0416   0.2844   1.0000
   C    C   0.0903   0.3256   0.1595   1.0000
   C    C   0.1749   0.3608   0.1335   1.0000
   C    C  -0.4143   0.0271   0.3592   1.0000
   C    C   0.1469   0.2179   0.1824   1.0000
   C    C   0.0997   0.2426   0.1830   1.0000
   C    C   0.1844   0.2786   0.1578   1.0000
   C    C  -0.3911   0.0603   0.4181   1.0000
   C    C   0.1573   0.1298   0.2071   1.0000
   C    C  -0.3241   0.0313  -0.1146   1.0000
   C    C   0.1431   0.0537   0.1759   1.0000
   C    C   0.1816   0.1205   0.2621   1.0000
   C    C  -0.4209   0.0342   0.4935   1.0000
   C    C  -0.3097   0.0949  -0.1769   1.0000
   C    C  -0.3466   0.4709   0.1988   1.0000
   C    C   0.1915   0.0374   0.2852   1.0000
   C    C  -0.3224   0.4625   0.2535   1.0000
   C    C  -0.2427   0.2223   0.0110   1.0000
   C    C  -0.1817   0.2146   0.0771   1.0000
   C    C  -0.1765   0.1264   0.0961   1.0000
   C    C  -0.1619   0.1080   0.1591   1.0000
   C    C  -0.1523   0.1767   0.2027   1.0000
   C    C  -0.1570   0.2638   0.1829   1.0000
   C    C  -0.1716   0.2821   0.1206   1.0000
   C    C  -0.1355   0.1607   0.2716   1.0000
   C    C  -0.1679   0.1004   0.3279   1.0000
   C    C  -0.2158   0.1448   0.3632   1.0000
   C    C  -0.2135   0.2404   0.3739   1.0000
   C    C  -0.2528   0.2883   0.4155   1.0000
   C    C  -0.2493   0.3769   0.4306   1.0000
   C    C  -0.2049   0.4197   0.4017   1.0000
   C    C  -0.1658   0.3754   0.3588   1.0000
   C    C  -0.1704   0.2860   0.3450   1.0000
   O    O  -0.3215   0.0736  -0.0469   1.0000
   O    O  -0.3938   0.1403  -0.0346   1.0000
   O    O  -0.3360   0.0515   0.2766   1.0000
   O    O  -0.4075   0.0853  -0.4547   1.0000
   O    O   0.0487   0.4782  -0.4905   1.0000
   O    O  -0.1954   0.2426   0.0162   1.0000
   O    O  -0.1759   0.3676   0.1030   1.0000
   O    O  -0.2529   0.0994   0.3831   1.0000
   O    O  -0.2959   0.2436   0.4423   1.0000
   O    O   0.2973   0.0078   0.4173   1.0000
   O    O  -0.1306   0.2464   0.3029   1.0000
   H    H  -0.3324   0.0488   0.1522   1.0000
   H    H  -0.3833   0.1917   0.1637   1.0000
   H    H  -0.4188   0.1416   0.1127   1.0000
   H    H  -0.3090   0.1441   0.0551   1.0000
   H    H   0.1394   0.4810   0.0496   1.0000
   H    H   0.0797   0.4782   0.1022   1.0000
   H    H  -0.4364   0.0326   0.2340   1.0000
   H    H  -0.3771   0.2962   0.0397   1.0000
   H    H  -0.3319   0.3007   0.0881   1.0000
   H    H  -0.3157   0.2877  -0.0067   1.0000
   H    H   0.0530   0.3443   0.1609   1.0000
   H    H   0.2047   0.4072   0.1135   1.0000
   H    H  -0.4489   0.0602   0.3629   1.0000
   H    H   0.0773   0.4565   0.3661   1.0000
   H    H   0.0701   0.1960   0.2025   1.0000
   H    H   0.2215   0.2596   0.1570   1.0000
   H    H  -0.3543   0.0337   0.4108   1.0000
   H    H  -0.3863   0.1322   0.4154   1.0000
   H    H  -0.3610   0.0044  -0.1082   1.0000
   H    H   0.2013   0.4771  -0.1178   1.0000
   H    H   0.1241   0.0604   0.1329   1.0000
   H    H   0.1925   0.1796   0.2870   1.0000
   H    H  -0.2740   0.1231  -0.1795   1.0000
   H    H  -0.3353   0.1493  -0.1716   1.0000
   H    H  -0.3077   0.0623  -0.2288   1.0000
   H    H  -0.3575   0.4121   0.1739   1.0000
   H    H   0.2104   0.0310   0.3281   1.0000
   H    H  -0.3143   0.3972   0.2714   1.0000
   H    H  -0.4256   0.0688  -0.4069   1.0000
   H    H  -0.2461   0.2572  -0.0377   1.0000
   H    H  -0.2702   0.2468   0.0586   1.0000
   H    H  -0.2474   0.1508   0.0044   1.0000
   H    H  -0.1838   0.0722   0.0626   1.0000
   H    H  -0.1581   0.0395   0.1736   1.0000
   H    H  -0.1497   0.3178   0.2168   1.0000
   H    H  -0.1860   0.3757   0.0587   1.0000
   H    H  -0.0982   0.1370   0.2587   1.0000
   H    H  -0.1741   0.0372   0.3046   1.0000
   H    H  -0.1500   0.0847   0.3708   1.0000
   H    H  -0.3096   0.2244   0.4043   1.0000
   H    H  -0.2797   0.4143   0.4635   1.0000
   H    H   0.3279   0.0330   0.3966   1.0000
   H    H  -0.1314   0.4094   0.3354   1.0000
   N    N  -0.4001   0.0425   0.2268   1.0000
