data_findsym-STRUC-2
# This file was generated by FINDSYM    
# Harold T. Stokes, Branton J. Campbell, Dorian M. Hatch
# Brigham Young University, Provo, Utah, USA
                                        
data_findsym-output                     
                                        
_symmetry_space_group_name_H-M 'C 1 2 1'
_symmetry_Int_Tables_number 5           
                                        
_cell_length_a      44.27294            
_cell_length_b      13.64439            
_cell_length_c      24.39094            
_cell_angle_alpha   90.00000            
_cell_angle_beta   151.73970            
_cell_angle_gamma   90.00000            
                                        
loop_                                   
_space_group_symop_operation_xyz        
x,y,z                                   
-x,y,-z                                 
x+1/2,y+1/2,z                           
-x+1/2,y+1/2,-z                         
                                        
loop_                                   
_atom_site_label                        
_atom_site_type_symbol                  
_atom_site_fract_x                      
_atom_site_fract_y                      
_atom_site_fract_z                      
_atom_site_occupancy                    
   C    C  -0.3211   0.4994   0.3069   1.0000
   C    C  -0.3152   0.4018   0.3482   1.0000
   C    C  -0.3363   0.3121   0.2804   1.0000
   C    C   0.2319   0.0104   0.3478   1.0000
   C    C   0.2273   0.1055   0.3092   1.0000
   C    C  -0.3584   0.2271   0.2818   1.0000
   C    C  -0.2814   0.2762   0.3321   1.0000
   C    C   0.1315   0.1401   0.2817   1.0000
   C    C   0.2757   0.1756   0.3905   1.0000
   C    C   0.1749   0.1245   0.1912   1.0000
   C    C   0.1435   0.2248   0.3404   1.0000
   C    C   0.2207   0.2803   0.2378   1.0000
   C    C   0.2730   0.2615   0.3557   1.0000
   C    C   0.1714   0.2107   0.1558   1.0000
   C    C   0.0804   0.2601   0.2641   1.0000
   C    C   0.2174   0.3714   0.2002   1.0000
   C    C  -0.2531   0.2483   0.2827   1.0000
   C    C   0.2668   0.3967   0.2429   1.0000
   C    C   0.1643   0.4340   0.1198   1.0000
   C    C   0.0888   0.3544   0.3103   1.0000
   C    C  -0.2575   0.1386   0.2717   1.0000
   C    C   0.2628   0.4819   0.2054   1.0000
   C    C  -0.3393   0.0185   0.0829   1.0000
   C    C  -0.2900   0.0428   0.1254   1.0000
   C    C   0.2684   0.0811   0.1170   1.0000
   C    C   0.1966   0.0954  -0.0039   1.0000
   C    C  -0.3891   0.4851  -0.1680   1.0000
   C    C  -0.4467   0.3365  -0.2862   1.0000
   C    C  -0.4731   0.3222  -0.2707   1.0000
   C    C   0.4798   0.2337  -0.3401   1.0000
   C    C   0.4967   0.1469  -0.3519   1.0000
   C    C  -0.4294   0.2423  -0.2873   1.0000
   C    C  -0.4143   0.2538  -0.3243   1.0000
   C    C   0.0865   0.0587  -0.2502   1.0000
   C    C   0.1077   0.1650  -0.2076   1.0000
   C    C   0.1793   0.1685  -0.0779   1.0000
   O    O  -0.2973   0.2838   0.2537   1.0000
   O    O  -0.2295   0.2448   0.4306   1.0000
   O    O   0.0787   0.1253   0.1762   1.0000
   O    O   0.0373   0.3688   0.2619   1.0000
   O    O   0.1326   0.4127   0.3784   1.0000
   O    O   0.2952   0.0368   0.1109   1.0000
   O    O  -0.3257   0.4981  -0.0524   1.0000
   O    O  -0.3888   0.3912  -0.1918   1.0000
   O    O   0.4933   0.4102  -0.3100   1.0000
   O    O   0.4781   0.1996  -0.2873   1.0000
   O    O  -0.4529   0.0951  -0.2440   1.0000
   O    O  -0.4833   0.1760  -0.3726   1.0000
   O    O  -0.3927   0.1634  -0.3122   1.0000
   O    O   0.0170   0.0528  -0.3594   1.0000
   O    O   0.0972   0.2194  -0.2741   1.0000
   O    O   0.2124   0.1464  -0.0755   1.0000
   H    H   0.1313   0.0024   0.2105   1.0000
   H    H  -0.3444   0.4059   0.3384   1.0000
   H    H  -0.2657   0.3915   0.4421   1.0000
   H    H  -0.3762   0.3335   0.1893   1.0000
   H    H  -0.2713   0.4495   0.3133   1.0000
   H    H   0.2791   0.0034   0.4426   1.0000
   H    H   0.2264   0.0948   0.4391   1.0000
   H    H  -0.3203   0.2030   0.3704   1.0000
   H    H  -0.3990   0.2492   0.2419   1.0000
   H    H  -0.3732   0.1638   0.2336   1.0000
   H    H   0.3168   0.1623   0.4831   1.0000
   H    H   0.1364   0.0703   0.1263   1.0000
   H    H   0.1767   0.2037   0.4259   1.0000
   H    H   0.1673   0.2849   0.3563   1.0000
   H    H   0.3115   0.3155   0.4202   1.0000
   H    H   0.1303   0.2248   0.0635   1.0000
   H    H   0.0445   0.2733   0.1744   1.0000
   H    H   0.0588   0.2036   0.2560   1.0000
   H    H  -0.2044   0.2734   0.3704   1.0000
   H    H  -0.2706   0.2866   0.2177   1.0000
   H    H   0.3082   0.3482   0.3051   1.0000
   H    H   0.1259   0.4150   0.0870   1.0000
   H    H  -0.3068   0.1150   0.1855   1.0000
   H    H  -0.2414   0.1015   0.3344   1.0000
   H    H  -0.2291   0.1099   0.2827   1.0000
   H    H  -0.1984   0.0009   0.2393   1.0000
   H    H  -0.3802   0.0680   0.0221   1.0000
   H    H  -0.2925   0.1109   0.0977   1.0000
   H    H   0.0413   0.4291   0.2889   1.0000
   H    H   0.2631   0.0335   0.0322   1.0000
   H    H   0.2929   0.1508   0.1650   1.0000
   H    H   0.2800   0.0280   0.1685   1.0000
   H    H   0.1741   0.1193  -0.0014   1.0000
   H    H  -0.4204   0.4857  -0.1797   1.0000
   H    H  -0.4835   0.3803  -0.3692   1.0000
   H    H  -0.4322   0.3118  -0.1754   1.0000
   H    H  -0.4990   0.4591  -0.3267   1.0000
   H    H   0.4310   0.2605  -0.4266   1.0000
   H    H  -0.4958   0.1417  -0.2423   1.0000
   H    H   0.4555   0.0979  -0.4261   1.0000
   H    H  -0.4424   0.0363  -0.2465   1.0000
   H    H  -0.3883   0.2067  -0.1998   1.0000
   H    H  -0.3778   0.3120  -0.2733   1.0000
   H    H  -0.4579   0.2735  -0.4172   1.0000
   H    H  -0.4139   0.1100  -0.3278   1.0000
   H    H   0.1018   0.0320  -0.2675   1.0000
   H    H   0.0005   0.0338  -0.4201   1.0000
   H    H   0.0776   0.2012  -0.2246   1.0000
   H    H   0.0901   0.1756  -0.3151   1.0000
   H    H   0.1930   0.2444  -0.0429   1.0000
   H    H   0.2225   0.0774  -0.0595   1.0000
   N    N   0.1825   0.0809   0.3520   1.0000
