data_findsym-STRUC-2
# This file was generated by FINDSYM    
# Harold T. Stokes, Branton J. Campbell, Dorian M. Hatch
# Brigham Young University, Provo, Utah, USA
                                        
data_findsym-output                     
                                        
_symmetry_space_group_name_H-M 'P 1 21 1'
_symmetry_Int_Tables_number 4           
                                        
_cell_length_a      11.06600            
_cell_length_b      18.05100            
_cell_length_c      13.10000            
_cell_angle_alpha   90.00000            
_cell_angle_beta   105.15700            
_cell_angle_gamma   90.00000            
                                        
loop_                                   
_space_group_symop_operation_xyz        
x,y,z                                   
-x,y+1/2,-z                             
                                        
loop_                                   
_atom_site_label                        
_atom_site_type_symbol                  
_atom_site_fract_x                      
_atom_site_fract_y                      
_atom_site_fract_z                      
_atom_site_occupancy                    
   C    C   0.2263   0.0706   0.4122   1.0000
   C    C   0.2340   0.1332   0.3345   1.0000
   C    C   0.1655   0.2046   0.3524   1.0000
   C    C   0.3090   0.0861  -0.4746   1.0000
   C    C   0.3025   0.0251  -0.3974   1.0000
   C    C   0.1249   0.2509   0.2510   1.0000
   C    C   0.2486   0.2521   0.4401   1.0000
   C    C   0.1810  -0.0553   0.3373   1.0000
   C    C   0.4053  -0.0186  -0.3526   1.0000
   C    C   0.1916   0.0112  -0.3691   1.0000
   C    C   0.2338  -0.1271   0.3025   1.0000
   C    C   0.2923  -0.0853  -0.2481   1.0000
   C    C   0.4023  -0.0714  -0.2770   1.0000
   C    C   0.1855  -0.0435  -0.2966   1.0000
   C    C   0.1270  -0.1712   0.2296   1.0000
   C    C   0.2870  -0.1424  -0.1692   1.0000
   C    C   0.2557   0.3051  -0.3911   1.0000
   C    C   0.3699  -0.1409  -0.0677   1.0000
   C    C   0.1992  -0.1978  -0.1928   1.0000
   C    C   0.1574  -0.2419   0.1980   1.0000
   C    C   0.2243   0.3863  -0.4200   1.0000
   C    C   0.3642  -0.1940   0.0069   1.0000
   C    C   0.1934  -0.2507  -0.1167   1.0000
   C    C   0.2753  -0.2504  -0.0191   1.0000
   C    C  -0.3801   0.0613  -0.3124   1.0000
   C    C  -0.3330  -0.0013  -0.2386   1.0000
   C    C  -0.2885  -0.0131  -0.0486   1.0000
   C    C  -0.2730   0.0123   0.1378   1.0000
   C    C  -0.3895  -0.0331   0.1367   1.0000
   C    C  -0.4259  -0.0378   0.2439   1.0000
   C    C  -0.3811   0.0328   0.3150   1.0000
   C    C  -0.2556   0.0795   0.2063   1.0000
   C    C  -0.1275   0.1142   0.2290   1.0000
   C    C  -0.1596  -0.0480  -0.0422   1.0000
   C    C  -0.1405  -0.0784  -0.1450   1.0000
   C    C  -0.1983  -0.0243  -0.2366   1.0000
   O    O   0.1955   0.2589  -0.4797   1.0000
   O    O   0.3490   0.2799   0.4370   1.0000
   O    O   0.0670  -0.0493   0.3318   1.0000
   O    O   0.0902  -0.2798   0.1184   1.0000
   O    O   0.2778  -0.2621   0.2593   1.0000
   O    O  -0.3071   0.1154  -0.2801   1.0000
   O    O  -0.3359   0.0283  -0.1375   1.0000
   O    O  -0.2762   0.0366   0.0351   1.0000
   O    O  -0.3743  -0.1070   0.1018   1.0000
   O    O   0.4452  -0.0511   0.2322   1.0000
   O    O  -0.4808   0.0848   0.2774   1.0000
   O    O  -0.2655   0.0606   0.3119   1.0000
   O    O  -0.1225   0.1809   0.2856   1.0000
   O    O  -0.1397  -0.1062   0.0374   1.0000
   O    O  -0.0102  -0.0880  -0.1370   1.0000
   O    O  -0.1103   0.0365  -0.2239   1.0000
   H    H   0.1286   0.0649   0.4162   1.0000
   H    H   0.1951   0.1137   0.2543   1.0000
   H    H   0.3330   0.1461   0.3400   1.0000
   H    H   0.0819   0.1896   0.3771   1.0000
   H    H   0.2806   0.1379  -0.4454   1.0000
   H    H   0.4062   0.0943  -0.4782   1.0000
   H    H   0.3547  -0.0065   0.3777   1.0000
   H    H   0.2059   0.2674   0.2228   1.0000
   H    H   0.0617   0.2197   0.1878   1.0000
   H    H   0.0751   0.3010   0.2636   1.0000
   H    H   0.4918  -0.0091  -0.3748   1.0000
   H    H   0.1074   0.0440  -0.4049   1.0000
   H    H   0.3073  -0.1145   0.2642   1.0000
   H    H   0.2788  -0.1589   0.3731   1.0000
   H    H   0.4864  -0.1043  -0.2403   1.0000
   H    H   0.0984  -0.0537  -0.2742   1.0000
   H    H   0.0499  -0.1789   0.2638   1.0000
   H    H   0.0916  -0.1434   0.1543   1.0000
   H    H   0.3576   0.2942  -0.3673   1.0000
   H    H   0.2143   0.2858  -0.3286   1.0000
   H    H   0.4390  -0.0963  -0.0476   1.0000
   H    H   0.1348  -0.2011  -0.2723   1.0000
   H    H   0.1251   0.3955  -0.4462   1.0000
   H    H   0.2694   0.4046  -0.4809   1.0000
   H    H   0.2575   0.4215  -0.3532   1.0000
   H    H   0.4281  -0.1918   0.0854   1.0000
   H    H   0.1256  -0.2938  -0.1364   1.0000
   H    H   0.2708  -0.2927   0.0391   1.0000
   H    H   0.1206  -0.3270   0.1048   1.0000
   H    H  -0.2393   0.1174  -0.2210   1.0000
   H    H  -0.3775   0.0524  -0.3950   1.0000
   H    H  -0.4726   0.0827  -0.3109   1.0000
   H    H  -0.3933  -0.0474  -0.2575   1.0000
   H    H  -0.3569  -0.0592  -0.0420   1.0000
   H    H  -0.1917  -0.0271   0.1661   1.0000
   H    H  -0.4728  -0.0067   0.0785   1.0000
   H    H  -0.2954  -0.1074   0.0801   1.0000
   H    H  -0.3803  -0.0866   0.2828   1.0000
   H    H   0.4067  -0.0048   0.2403   1.0000
   H    H  -0.3696   0.0205   0.4005   1.0000
   H    H  -0.4662   0.1279   0.3210   1.0000
   H    H  -0.3308   0.1202   0.1704   1.0000
   H    H  -0.1023   0.1252   0.1513   1.0000
   H    H  -0.0549   0.0799   0.2751   1.0000
   H    H  -0.1781   0.1797   0.3290   1.0000
   H    H  -0.0881  -0.0035  -0.0112   1.0000
   H    H  -0.0676  -0.0963   0.0940   1.0000
   H    H  -0.1824  -0.1334  -0.1600   1.0000
   H    H   0.0377  -0.0612  -0.0779   1.0000
   H    H  -0.2000  -0.0508  -0.3143   1.0000
   H    H  -0.1412   0.0737  -0.1845   1.0000
   N    N   0.2619   0.0008   0.3730   1.0000
