data_findsym-STRUC-3
# This file was generated by FINDSYM    
# Harold T. Stokes, Branton J. Campbell, Dorian M. Hatch
# Brigham Young University, Provo, Utah, USA
                                        
data_findsym-output                     
                                        
_symmetry_space_group_name_H-M 'P 1 21 1'
_symmetry_Int_Tables_number 4           
                                        
_cell_length_a      13.75800            
_cell_length_b      14.11600            
_cell_length_c      15.23300            
_cell_angle_alpha   90.00000            
_cell_angle_beta   113.13300            
_cell_angle_gamma   90.00000            
                                        
loop_                                   
_space_group_symop_operation_xyz        
x,y,z                                   
-x,y+1/2,-z                             
                                        
loop_                                   
_atom_site_label                        
_atom_site_type_symbol                  
_atom_site_fract_x                      
_atom_site_fract_y                      
_atom_site_fract_z                      
_atom_site_occupancy                    
   C    C  -0.3556   0.3340  -0.0363   1.0000
   C    C  -0.2925   0.4128   0.0321   1.0000
   C    C  -0.2761  -0.4974  -0.0163   1.0000
   C    C  -0.4724   0.3595  -0.0954   1.0000
   C    C   0.4633   0.2831  -0.1546   1.0000
   C    C  -0.1810  -0.4399   0.0508   1.0000
   C    C  -0.3714  -0.4332  -0.0483   1.0000
   C    C  -0.2650   0.1869   0.0432   1.0000
   C    C   0.3764   0.2472  -0.1396   1.0000
   C    C   0.4860   0.2435  -0.2291   1.0000
   C    C  -0.2745   0.1004   0.0975   1.0000
   C    C   0.3393   0.1355  -0.2682   1.0000
   C    C   0.3152   0.1744  -0.1956   1.0000
   C    C   0.4250   0.1714  -0.2850   1.0000
   C    C  -0.1814   0.0344   0.1231   1.0000
   C    C   0.2778   0.0617  -0.3238   1.0000
   C    C  -0.4667  -0.3174  -0.1636   1.0000
   C    C   0.1836   0.0818  -0.4008   1.0000
   C    C   0.3109  -0.0323  -0.3027   1.0000
   C    C  -0.1933  -0.0498   0.1765   1.0000
   C    C  -0.4619  -0.2686  -0.2484   1.0000
   C    C   0.1234   0.0080  -0.4566   1.0000
   C    C   0.2498  -0.1051  -0.3594   1.0000
   C    C   0.1558  -0.0854  -0.4352   1.0000
   C    C  -0.2915   0.4833  -0.4662   1.0000
   C    C  -0.4778  -0.4743   0.4317   1.0000
   C    C   0.4790   0.4792   0.3343   1.0000
   C    C  -0.3292   0.4070  -0.4149   1.0000
   C    C  -0.2889   0.4233  -0.3062   1.0000
   C    C  -0.3678   0.2405  -0.4697   1.0000
   C    C  -0.3241   0.1445  -0.4779   1.0000
   C    C  -0.2819   0.1422   0.4420   1.0000
   C    C  -0.2484   0.0412   0.4258   1.0000
   C    C  -0.1290   0.0282   0.4775   1.0000
   O    O  -0.3779  -0.3819  -0.1264   1.0000
   O    O  -0.4337  -0.4259  -0.0103   1.0000
   O    O  -0.1855   0.2014   0.0235   1.0000
   O    O  -0.1107  -0.1114   0.1995   1.0000
   O    O  -0.2667  -0.0678   0.1989   1.0000
   O    O  -0.1955  -0.4992  -0.4407   1.0000
   O    O   0.4350   0.3935   0.3335   1.0000
   O    O   0.4829  -0.4880   0.2629   1.0000
   O    O  -0.1049  -0.0491  -0.4610   1.0000
   O    O  -0.0615   0.0751   0.4686   1.0000
   O    O  -0.4702   0.2543  -0.4983   1.0000
   H    H  -0.3166   0.3191  -0.0861   1.0000
   H    H  -0.2143   0.3841   0.0768   1.0000
   H    H  -0.3304   0.4300   0.0819   1.0000
   H    H  -0.2605   0.4825  -0.0799   1.0000
   H    H  -0.4763   0.4201  -0.1428   1.0000
   H    H   0.4921   0.3852  -0.0465   1.0000
   H    H  -0.4092   0.2304   0.0373   1.0000
   H    H  -0.1932  -0.4191   0.1151   1.0000
   H    H  -0.1086  -0.4822   0.0729   1.0000
   H    H  -0.1695  -0.3756   0.0163   1.0000
   H    H   0.3561   0.2754  -0.0853   1.0000
   H    H  -0.4496   0.2687  -0.2429   1.0000
   H    H  -0.2834   0.1247   0.1628   1.0000
   H    H  -0.3479   0.0633   0.0536   1.0000
   H    H   0.2509   0.1487  -0.1822   1.0000
   H    H   0.4446   0.1431  -0.3390   1.0000
   H    H  -0.1721   0.0095   0.0580   1.0000
   H    H  -0.1073   0.0712   0.1674   1.0000
   H    H  -0.4607  -0.2664  -0.1071   1.0000
   H    H   0.4601  -0.3585  -0.1825   1.0000
   H    H   0.1586   0.1521  -0.4182   1.0000
   H    H   0.3812  -0.0479  -0.2458   1.0000
   H    H  -0.4663  -0.3192  -0.3045   1.0000
   H    H  -0.3887  -0.2287  -0.2302   1.0000
   H    H   0.4713  -0.2185  -0.2788   1.0000
   H    H   0.0547   0.0234   0.4857   1.0000
   H    H   0.2749  -0.1754  -0.3434   1.0000
   H    H   0.1102  -0.1399  -0.4785   1.0000
   H    H  -0.1288  -0.1627   0.2340   1.0000
   H    H  -0.3364  -0.4180   0.4293   1.0000
   H    H  -0.4988   0.4806   0.4811   1.0000
   H    H   0.4850  -0.4038   0.4255   1.0000
   H    H   0.4780   0.3600   0.3945   1.0000
   H    H  -0.4143   0.4148  -0.4445   1.0000
   H    H  -0.3326   0.4822  -0.2901   1.0000
   H    H  -0.3040   0.3593  -0.2721   1.0000
   H    H  -0.1187   0.3687  -0.2892   1.0000
   H    H  -0.2213   0.2950  -0.4104   1.0000
   H    H  -0.3854   0.0905  -0.4912   1.0000
   H    H  -0.2598   0.1303  -0.4083   1.0000
   H    H  -0.2147   0.1905   0.4593   1.0000
   H    H  -0.3446   0.1659   0.3748   1.0000
   H    H  -0.2850  -0.0116   0.4563   1.0000
   H    H  -0.2488  -0.0426   0.3155   1.0000
   H    H  -0.3578   0.0157   0.2907   1.0000
   H    H  -0.1214  -0.0301  -0.4069   1.0000
   N    N  -0.3479   0.2469   0.0175   1.0000
   N    N  -0.3658  -0.4675   0.4637   1.0000
   N    N  -0.2999   0.3115  -0.4332   1.0000
   N    N  -0.2770   0.0222   0.3259   1.0000
   S    S  -0.1470   0.4484  -0.2543   1.0000
