data_findsym-STRUC-2
# This file was generated by FINDSYM    
# Harold T. Stokes, Branton J. Campbell, Dorian M. Hatch
# Brigham Young University, Provo, Utah, USA
                                        
data_findsym-output                     
                                        
_symmetry_space_group_name_H-M 'P -1'   
_symmetry_Int_Tables_number 2           
                                        
_cell_length_a      17.82600            
_cell_length_b      14.41300            
_cell_length_c      13.46100            
_cell_angle_alpha   88.64400            
_cell_angle_beta    99.71500            
_cell_angle_gamma  111.05400            
                                        
loop_                                   
_space_group_symop_operation_xyz        
x,y,z                                   
-x,-y,-z                                
                                        
loop_                                   
_atom_site_label                        
_atom_site_type_symbol                  
_atom_site_fract_x                      
_atom_site_fract_y                      
_atom_site_fract_z                      
_atom_site_occupancy                    
   C    C  -0.2728   0.3687  -0.0306   1.0000
   C    C  -0.2770   0.3963  -0.1421   1.0000
   C    C  -0.3412   0.4443  -0.1775   1.0000
   C    C  -0.2307   0.4615   0.0419   1.0000
   C    C  -0.2252   0.4359   0.1516   1.0000
   C    C  -0.3715   0.4294  -0.2917   1.0000
   C    C  -0.3059  -0.4446  -0.1505   1.0000
   C    C  -0.2650   0.2029   0.0087   1.0000
   C    C  -0.1496   0.4550   0.2132   1.0000
   C    C  -0.2963   0.3945   0.1937   1.0000
   C    C  -0.2097   0.1413   0.0318   1.0000
   C    C  -0.2153   0.3940   0.3572   1.0000
   C    C  -0.1443   0.4353   0.3151   1.0000
   C    C  -0.2916   0.3733   0.2950   1.0000
   C    C  -0.2605   0.0306   0.0156   1.0000
   C    C  -0.2105   0.3727   0.4656   1.0000
   C    C  -0.3266  -0.3186  -0.0549   1.0000
   C    C  -0.1646   0.4482  -0.4608   1.0000
   C    C  -0.2521   0.2779   0.4958   1.0000
   C    C  -0.2100  -0.0335   0.0530   1.0000
   C    C  -0.3636  -0.2657  -0.1375   1.0000
   C    C  -0.1611   0.4279  -0.3594   1.0000
   C    C  -0.2473   0.2576  -0.4012   1.0000
   C    C  -0.2020   0.3322  -0.3292   1.0000
   C    C   0.0010   0.2125   0.3344   1.0000
   C    C  -0.0130   0.2737   0.1552   1.0000
   C    C   0.0284   0.3004   0.2649   1.0000
   C    C   0.3277   0.3457   0.4646   1.0000
   C    C   0.1416   0.2439   0.4157   1.0000
   C    C   0.2709   0.2769  -0.4690   1.0000
   C    C   0.2612   0.1667  -0.4761   1.0000
   C    C   0.2074   0.1143   0.4229   1.0000
   C    C  -0.0872   0.1913   0.3619   1.0000
   C    C   0.1269   0.1319   0.4025   1.0000
   C    C  -0.2158   0.0612   0.4272   1.0000
   C    C  -0.1238   0.0911   0.4146   1.0000
   O    O  -0.3468  -0.4219  -0.0865   1.0000
   O    O  -0.2464  -0.3811  -0.1815   1.0000
   O    O  -0.3391   0.1657   0.0096   1.0000
   O    O  -0.2480  -0.1274   0.0131   1.0000
   O    O  -0.1453  -0.0089   0.1108   1.0000
   O    O   0.0154   0.3838   0.3039   1.0000
   O    O   0.0228   0.3526   0.0907   1.0000
   O    O   0.0634   0.2465   0.4256   1.0000
   O    O   0.1916   0.2882  -0.4914   1.0000
   O    O   0.3380   0.4463   0.4827   1.0000
   O    O   0.2267   0.1180  -0.3918   1.0000
   O    O   0.2529   0.1517   0.3437   1.0000
   O    O   0.0779   0.0776   0.4722   1.0000
   O    O  -0.0832   0.2720   0.4241   1.0000
   O    O  -0.0763   0.1082  -0.4854   1.0000
   O    O  -0.2247   0.1293   0.4919   1.0000
   H    H  -0.3359   0.3291  -0.0155   1.0000
   H    H  -0.2914   0.3296  -0.1893   1.0000
   H    H  -0.2162   0.4465  -0.1561   1.0000
   H    H  -0.3940   0.4105  -0.1383   1.0000
   H    H  -0.2645  -0.4878   0.0279   1.0000
   H    H  -0.1691  -0.4966   0.0249   1.0000
   H    H  -0.1661   0.3301  -0.0105   1.0000
   H    H  -0.3214   0.4619  -0.3339   1.0000
   H    H  -0.3998   0.3503  -0.3136   1.0000
   H    H  -0.4170   0.4637  -0.3161   1.0000
   H    H  -0.0934   0.4863   0.1809   1.0000
   H    H  -0.3563   0.3790   0.1462   1.0000
   H    H  -0.1617   0.1635  -0.0152   1.0000
   H    H  -0.1774   0.1586   0.1102   1.0000
   H    H  -0.0848   0.4509   0.3626   1.0000
   H    H  -0.3473   0.3412   0.3276   1.0000
   H    H  -0.3133   0.0097   0.0553   1.0000
   H    H  -0.2875   0.0110  -0.0644   1.0000
   H    H  -0.2593  -0.2827  -0.0358   1.0000
   H    H  -0.3535  -0.3262   0.0139   1.0000
   H    H  -0.1322  -0.4765  -0.4844   1.0000
   H    H  -0.2871   0.2181   0.4394   1.0000
   H    H  -0.4294  -0.3062  -0.1588   1.0000
   H    H  -0.3363  -0.2607  -0.2053   1.0000
   H    H  -0.3543  -0.1906  -0.1126   1.0000
   H    H  -0.1261   0.4867  -0.3015   1.0000
   H    H  -0.2795   0.1819  -0.3786   1.0000
   H    H  -0.1990   0.3169  -0.2492   1.0000
   H    H  -0.2180  -0.1703   0.0366   1.0000
   H    H   0.0656   0.4355   0.3326   1.0000
   H    H   0.0018   0.1438   0.3043   1.0000
   H    H   0.0722   0.3459   0.0761   1.0000
   H    H  -0.0798   0.2604   0.1478   1.0000
   H    H  -0.0072   0.2073   0.1249   1.0000
   H    H   0.0963   0.3235   0.2683   1.0000
   H    H   0.3009   0.3293   0.3838   1.0000
   H    H   0.3886   0.3373   0.4763   1.0000
   H    H   0.1667   0.2909   0.3521   1.0000
   H    H   0.2912   0.3043  -0.3887   1.0000
   H    H   0.2912   0.4596   0.4451   1.0000
   H    H   0.3224   0.1601  -0.4688   1.0000
   H    H   0.1905   0.1452  -0.3740   1.0000
   H    H   0.1932   0.0321   0.4275   1.0000
   H    H  -0.1285   0.1908   0.2925   1.0000
   H    H   0.2655   0.2233   0.3422   1.0000
   H    H   0.0934   0.1053   0.3244   1.0000
   H    H   0.0323   0.0973   0.4744   1.0000
   H    H  -0.2547   0.0607   0.3542   1.0000
   H    H  -0.2397  -0.0132   0.4568   1.0000
   H    H  -0.0291   0.3081   0.4567   1.0000
   H    H  -0.1175   0.0295   0.3752   1.0000
   H    H  -0.0214   0.1558  -0.4890   1.0000
   H    H  -0.1978   0.1292  -0.4411   1.0000
   N    N  -0.2281   0.2998  -0.0120   1.0000
