data_findsym-STRUC-3
# This file was generated by FINDSYM    
# Harold T. Stokes, Branton J. Campbell, Dorian M. Hatch
# Brigham Young University, Provo, Utah, USA
                                        
data_findsym-output                     
                                        
_symmetry_space_group_name_H-M 'P -1'   
_symmetry_Int_Tables_number 2           
                                        
_cell_length_a      19.71600            
_cell_length_b      17.54400            
_cell_length_c      10.93900            
_cell_angle_alpha   86.10500            
_cell_angle_beta    85.01200            
_cell_angle_gamma   67.48100            
                                        
loop_                                   
_space_group_symop_operation_xyz        
x,y,z                                   
-x,-y,-z                                
                                        
loop_                                   
_atom_site_label                        
_atom_site_type_symbol                  
_atom_site_fract_x                      
_atom_site_fract_y                      
_atom_site_fract_z                      
_atom_site_occupancy                    
   C    C   0.0064  -0.2524  -0.0827   1.0000
   C    C   0.0653  -0.2385  -0.1737   1.0000
   C    C   0.1146  -0.2038  -0.1130   1.0000
   C    C   0.0399  -0.3288   0.0045   1.0000
   C    C  -0.0169  -0.3439   0.0932   1.0000
   C    C   0.1477  -0.1558  -0.2061   1.0000
   C    C   0.1779  -0.2743  -0.0534   1.0000
   C    C  -0.1194  -0.2067  -0.1549   1.0000
   C    C  -0.0316  -0.4151   0.0893   1.0000
   C    C  -0.0549  -0.2869   0.1837   1.0000
   C    C  -0.1732  -0.2273  -0.2267   1.0000
   C    C  -0.1194  -0.3744   0.2644   1.0000
   C    C  -0.0814  -0.4311   0.1738   1.0000
   C    C  -0.1057  -0.3016   0.2676   1.0000
   C    C  -0.2380  -0.1490  -0.2600   1.0000
   C    C  -0.1727  -0.3905   0.3549   1.0000
   C    C   0.2297  -0.3227   0.1427   1.0000
   C    C  -0.1517  -0.4634   0.4288   1.0000
   C    C  -0.2454  -0.3330   0.3691   1.0000
   C    C  -0.2986  -0.1685  -0.3143   1.0000
   C    C   0.2948  -0.3006   0.1297   1.0000
   C    C  -0.2018  -0.4779  -0.4850   1.0000
   C    C  -0.2956  -0.3478   0.4548   1.0000
   C    C  -0.2739  -0.4202  -0.4717   1.0000
   C    C   0.4683  -0.2354  -0.1283   1.0000
   C    C   0.4097  -0.1993  -0.0247   1.0000
   C    C   0.4090  -0.2468   0.0820   1.0000
   C    C   0.3575  -0.2137   0.1827   1.0000
   C    C   0.3590  -0.2682   0.2979   1.0000
   C    C   0.3042  -0.1346   0.1726   1.0000
   C    C   0.3014  -0.0862   0.0645   1.0000
   C    C   0.2468  -0.0062   0.0525   1.0000
   C    C   0.2443   0.0417  -0.0554   1.0000
   C    C   0.2968   0.0109  -0.1528   1.0000
   C    C   0.3507  -0.0673  -0.1440   1.0000
   C    C   0.3556  -0.1186  -0.0364   1.0000
   C    C  -0.4572  -0.2341  -0.1019   1.0000
   C    C  -0.4007  -0.3069  -0.0706   1.0000
   C    C  -0.3298  -0.3091  -0.0505   1.0000
   C    C  -0.2699  -0.3901  -0.0228   1.0000
   C    C  -0.3174  -0.2365  -0.0563   1.0000
   C    C  -0.3744  -0.1599  -0.0826   1.0000
   C    C  -0.3636  -0.0848  -0.0855   1.0000
   C    C  -0.4197  -0.0102  -0.1099   1.0000
   C    C  -0.4891  -0.0084  -0.1324   1.0000
   C    C   0.4984  -0.0811  -0.1316   1.0000
   C    C  -0.4458  -0.1583  -0.1066   1.0000
   O    O   0.1722  -0.2643   0.0679   1.0000
   O    O   0.2263  -0.3316  -0.1064   1.0000
   O    O  -0.1392  -0.1413  -0.1003   1.0000
   O    O  -0.3450  -0.0999  -0.3739   1.0000
   O    O  -0.3071  -0.2334  -0.3079   1.0000
   O    O   0.4603  -0.3276   0.0861   1.0000
   O    O   0.4009  -0.3388   0.3119   1.0000
   O    O   0.3061  -0.2289   0.3865   1.0000
   O    O  -0.4158  -0.3783  -0.0572   1.0000
   O    O  -0.2648  -0.4562  -0.0520   1.0000
   O    O  -0.2158  -0.3819   0.0437   1.0000
   H    H  -0.0212  -0.1966  -0.0268   1.0000
   H    H   0.0380  -0.1956  -0.2480   1.0000
   H    H   0.0996  -0.2967  -0.2194   1.0000
   H    H   0.0816  -0.1618  -0.0398   1.0000
   H    H   0.0815  -0.3205   0.0568   1.0000
   H    H   0.0699  -0.3839  -0.0503   1.0000
   H    H  -0.0344  -0.3173  -0.1969   1.0000
   H    H   0.1813  -0.1951  -0.2803   1.0000
   H    H   0.1042  -0.1034  -0.2478   1.0000
   H    H   0.1826  -0.1315  -0.1620   1.0000
   H    H  -0.0029  -0.4595   0.0182   1.0000
   H    H  -0.0440  -0.2303   0.1883   1.0000
   H    H  -0.1451  -0.2601  -0.3098   1.0000
   H    H  -0.1918  -0.2710  -0.1705   1.0000
   H    H  -0.0923  -0.4877   0.1700   1.0000
   H    H  -0.1349  -0.2570   0.3383   1.0000
   H    H  -0.2625  -0.1120  -0.1791   1.0000
   H    H  -0.2211  -0.1079  -0.3240   1.0000
   H    H   0.2420  -0.3859   0.1154   1.0000
   H    H   0.2014  -0.3129   0.2354   1.0000
   H    H  -0.0949   0.4914   0.4184   1.0000
   H    H  -0.2624  -0.2759   0.3112   1.0000
   H    H   0.2809  -0.2359   0.1512   1.0000
   H    H   0.3226  -0.3075   0.0373   1.0000
   H    H   0.3375  -0.3379   0.1916   1.0000
   H    H  -0.1847   0.4654  -0.4273   1.0000
   H    H  -0.3520  -0.3027   0.4650   1.0000
   H    H  -0.3132  -0.4317  -0.4037   1.0000
   H    H  -0.3842  -0.1107  -0.4069   1.0000
   H    H   0.4510  -0.2005  -0.2147   1.0000
   H    H   0.2631  -0.1106   0.2487   1.0000
   H    H   0.2064   0.0182   0.1290   1.0000
   H    H   0.2017   0.1035  -0.0637   1.0000
   H    H   0.2942   0.0492  -0.2367   1.0000
   H    H   0.3922  -0.0904  -0.2199   1.0000
   H    H   0.4899  -0.3396   0.1533   1.0000
   H    H   0.3093  -0.2655   0.4578   1.0000
   H    H   0.4739  -0.2987  -0.1419   1.0000
   H    H  -0.2629  -0.2372  -0.0415   1.0000
   H    H  -0.3090  -0.0867  -0.0687   1.0000
   H    H  -0.4108   0.0474  -0.1108   1.0000
   H    H   0.4661   0.0512  -0.1499   1.0000
   H    H   0.4451  -0.0787  -0.1503   1.0000
   H    H  -0.4107  -0.4024   0.0228   1.0000
   H    H  -0.2354  -0.3389   0.1012   1.0000
   N    N  -0.0500  -0.2625  -0.1530   1.0000
