data_findsym-STRUC-2
# This file was generated by FINDSYM    
# Harold T. Stokes, Branton J. Campbell, Dorian M. Hatch
# Brigham Young University, Provo, Utah, USA
                                        
data_findsym-output                     
                                        
_symmetry_space_group_name_H-M 'C 1 2 1'
_symmetry_Int_Tables_number 5           
                                        
_cell_length_a      27.99397            
_cell_length_b      15.85900            
_cell_length_c      15.80800            
_cell_angle_alpha   90.00000            
_cell_angle_beta    82.59450            
_cell_angle_gamma   90.00000            
                                        
loop_                                   
_space_group_symop_operation_xyz        
x,y,z                                   
-x,y,-z                                 
x+1/2,y+1/2,z                           
-x+1/2,y+1/2,-z                         
                                        
loop_                                   
_atom_site_label                        
_atom_site_type_symbol                  
_atom_site_fract_x                      
_atom_site_fract_y                      
_atom_site_fract_z                      
_atom_site_occupancy                    
   C    C   0.3609   0.4093   0.2271   1.0000
   C    C   0.3674   0.3209   0.1866   1.0000
   C    C   0.4193   0.3047   0.1429   1.0000
   C    C   0.3846   0.4161   0.3102   1.0000
   C    C  -0.1218   0.0018   0.3513   1.0000
   C    C   0.4206   0.2385   0.0729   1.0000
   C    C   0.4511   0.2744   0.2088   1.0000
   C    C   0.2871   0.4882   0.2032   1.0000
   C    C  -0.1485   0.0117   0.4317   1.0000
   C    C  -0.1000   0.0731   0.3101   1.0000
   C    C  -0.2665   0.0037   0.2311   1.0000
   C    C  -0.1308   0.1610   0.4300   1.0000
   C    C  -0.1525   0.0899   0.4707   1.0000
   C    C  -0.1046   0.1516   0.3486   1.0000
   C    C  -0.2896   0.0472   0.1608   1.0000
   C    C  -0.1351   0.2445   0.4715   1.0000
   C    C  -0.4766   0.3117   0.2689   1.0000
   C    C  -0.1209   0.2564  -0.4473   1.0000
   C    C  -0.1534   0.3135   0.4301   1.0000
   C    C  -0.3410   0.0753   0.1909   1.0000
   C    C  -0.4401   0.2492   0.2253   1.0000
   C    C  -0.1245   0.3352  -0.4088   1.0000
   C    C  -0.1572   0.3923   0.4690   1.0000
   C    C  -0.1426   0.4035  -0.4505   1.0000
   C    C  -0.3679   0.0864  -0.0801   1.0000
   C    C  -0.3464   0.0093  -0.0447   1.0000
   C    C   0.1254   0.4380  -0.0270   1.0000
   C    C   0.1447   0.3628   0.0049   1.0000
   C    C   0.1130   0.2870   0.0205   1.0000
   C    C   0.1924   0.3616   0.0200   1.0000
   C    C   0.2219   0.4332   0.0050   1.0000
   C    C   0.2700   0.4334   0.0227   1.0000
   C    C  -0.2017   0.0050   0.0095   1.0000
   C    C  -0.2207   0.0791  -0.0217   1.0000
   C    C  -0.2675   0.0809  -0.0396   1.0000
   C    C  -0.2981   0.0093  -0.0281   1.0000
   C    C  -0.3717   0.0795  -0.1760   1.0000
   C    C  -0.4157   0.0664  -0.2037   1.0000
   C    C  -0.4206   0.0623  -0.2919   1.0000
   C    C  -0.4699   0.0527  -0.3182   1.0000
   C    C  -0.3805   0.0682  -0.3518   1.0000
   C    C  -0.3340   0.0777  -0.3265   1.0000
   C    C  -0.2923   0.0805  -0.3870   1.0000
   C    C  -0.2470   0.0876  -0.3610   1.0000
   C    C  -0.2422   0.0934  -0.2743   1.0000
   C    C  -0.2827   0.0922  -0.2135   1.0000
   C    C  -0.3293   0.0838  -0.2369   1.0000
   O    O   0.4868   0.3301   0.2135   1.0000
   O    O   0.4458   0.2112   0.2521   1.0000
   O    O  -0.1900   0.0299   0.1456   1.0000
   O    O  -0.3652   0.0911   0.1228   1.0000
   O    O  -0.3598   0.0846   0.2640   1.0000
   O    O   0.0773   0.4428  -0.0403   1.0000
   O    O   0.0712   0.2828   0.0112   1.0000
   O    O   0.1370   0.2176   0.0480   1.0000
   O    O  -0.4557   0.0566  -0.1419   1.0000
   O    O   0.4930   0.0735  -0.2789   1.0000
   O    O  -0.4687   0.0147  -0.3979   1.0000
   H    H   0.3775   0.4572   0.1806   1.0000
   H    H   0.3424   0.3137   0.1393   1.0000
   H    H   0.3567   0.2716   0.2350   1.0000
   H    H   0.4346   0.3642   0.1148   1.0000
   H    H   0.4232   0.4026   0.2963   1.0000
   H    H   0.3698   0.3667   0.3555   1.0000
   H    H   0.2902   0.3956   0.2949   1.0000
   H    H   0.4062   0.1793   0.0975   1.0000
   H    H   0.3992   0.2584   0.0227   1.0000
   H    H   0.4573   0.2266   0.0420   1.0000
   H    H   0.3338   0.4565   0.4643   1.0000
   H    H  -0.0789   0.0664   0.2469   1.0000
   H    H   0.2150   0.4439   0.2497   1.0000
   H    H  -0.2703   0.0426   0.2893   1.0000
   H    H  -0.1730   0.0967  -0.4662   1.0000
   H    H  -0.0874   0.2069   0.3161   1.0000
   H    H  -0.2685   0.1025   0.1357   1.0000
   H    H  -0.2897   0.0058   0.1052   1.0000
   H    H  -0.4943   0.2884   0.3310   1.0000
   H    H  -0.4612   0.3746   0.2767   1.0000
   H    H  -0.1065   0.2028  -0.4146   1.0000
   H    H  -0.1649   0.3046   0.3670   1.0000
   H    H  -0.4250   0.2719   0.1618   1.0000
   H    H  -0.4569   0.1877   0.2172   1.0000
   H    H  -0.4103   0.2394   0.2626   1.0000
   H    H  -0.1130   0.3441  -0.3460   1.0000
   H    H  -0.1716   0.4454   0.4364   1.0000
   H    H  -0.1454   0.4656  -0.4202   1.0000
   H    H  -0.3977   0.1103   0.1409   1.0000
   H    H  -0.3468   0.1434  -0.0697   1.0000
   H    H   0.2076   0.3043   0.0441   1.0000
   H    H   0.2845   0.3760   0.0485   1.0000
   H    H  -0.1648   0.0052   0.0249   1.0000
   H    H  -0.1980   0.1351  -0.0313   1.0000
   H    H  -0.2817   0.1383  -0.0661   1.0000
   H    H   0.0683   0.4012  -0.0779   1.0000
   H    H   0.1153   0.1705   0.0576   1.0000
   H    H  -0.4040   0.0977  -0.0455   1.0000
   H    H  -0.3837   0.0651  -0.4201   1.0000
   H    H  -0.2963   0.0766  -0.4550   1.0000
   H    H  -0.2152   0.0890  -0.4078   1.0000
   H    H  -0.2062   0.0993  -0.2546   1.0000
   H    H  -0.2785   0.0980  -0.1473   1.0000
   H    H  -0.4704   0.0034  -0.1434   1.0000
   H    H   0.0560   0.4730  -0.4084   1.0000
   N    N   0.3091   0.4280   0.2448   1.0000
