data_findsym-STRUC-2
# This file was generated by FINDSYM    
# Harold T. Stokes, Branton J. Campbell, Dorian M. Hatch
# Brigham Young University, Provo, Utah, USA
                                        
data_findsym-output                     
                                        
_symmetry_space_group_name_H-M 'C 1 2 1'
_symmetry_Int_Tables_number 5           
                                        
_cell_length_a      40.33067            
_cell_length_b      14.09300            
_cell_length_c      15.96400            
_cell_angle_alpha   90.00000            
_cell_angle_beta   109.73231            
_cell_angle_gamma   90.00000            
                                        
loop_                                   
_space_group_symop_operation_xyz        
x,y,z                                   
-x,y,-z                                 
x+1/2,y+1/2,z                           
-x+1/2,y+1/2,-z                         
                                        
loop_                                   
_atom_site_label                        
_atom_site_type_symbol                  
_atom_site_fract_x                      
_atom_site_fract_y                      
_atom_site_fract_z                      
_atom_site_occupancy                    
   C    C   0.2928   0.1152  -0.2380   1.0000
   C    C   0.2891   0.2171  -0.2753   1.0000
   C    C   0.2710   0.2211  -0.3773   1.0000
   C    C   0.2571   0.0751  -0.2372   1.0000
   C    C  -0.2398   0.4758  -0.2001   1.0000
   C    C   0.2816   0.3101  -0.4175   1.0000
   C    C   0.2308   0.2212  -0.4010   1.0000
   C    C   0.3504   0.0727  -0.1257   1.0000
   C    C  -0.2468   0.4574  -0.1221   1.0000
   C    C  -0.2307   0.4001  -0.2450   1.0000
   C    C   0.3737   0.0745  -0.0271   1.0000
   C    C  -0.2363   0.2897  -0.1342   1.0000
   C    C  -0.2453   0.3654  -0.0896   1.0000
   C    C  -0.2288   0.3084  -0.2124   1.0000
   C    C   0.4122   0.0578  -0.0182   1.0000
   C    C  -0.2347   0.1918  -0.1003   1.0000
   C    C   0.1791   0.1308  -0.4833   1.0000
   C    C  -0.2641   0.1513  -0.0852   1.0000
   C    C  -0.2040   0.1378  -0.0832   1.0000
   C    C   0.4355   0.0442   0.0792   1.0000
   C    C   0.1633   0.1916   0.4337   1.0000
   C    C  -0.2627   0.0590  -0.0549   1.0000
   C    C  -0.2026   0.0451  -0.0515   1.0000
   C    C  -0.2318   0.0057  -0.0379   1.0000
   C    C  -0.4523   0.4325   0.2451   1.0000
   C    C  -0.4217   0.4520   0.2097   1.0000
   C    C   0.0616   0.0707   0.3575   1.0000
   C    C  -0.4444   0.4081   0.4073   1.0000
   C    C  -0.4255   0.3979   0.1226   1.0000
   C    C  -0.3869   0.4254   0.2819   1.0000
   C    C  -0.4519   0.3020   0.3886   1.0000
   C    C  -0.4885   0.4720   0.1847   1.0000
   C    C   0.0277   0.1280   0.3255   1.0000
   C    C  -0.4867   0.2743   0.4014   1.0000
   C    C  -0.4961   0.1708   0.3756   1.0000
   C    C   0.0225   0.1966   0.2595   1.0000
   C    C   0.0008   0.1112   0.3618   1.0000
   C    C  -0.0352   0.2316   0.2656   1.0000
   C    C  -0.0087   0.2481   0.2296   1.0000
   C    C  -0.0302   0.1626   0.3320   1.0000
   C    C   0.4682   0.1441   0.3822   1.0000
   C    C  -0.0684   0.2879   0.2354   1.0000
   C    C  -0.0972   0.2599   0.1600   1.0000
   C    C  -0.0712   0.3700   0.2813   1.0000
   C    C  -0.1279   0.3163   0.1324   1.0000
   C    C  -0.1016   0.4248   0.2535   1.0000
   C    C  -0.0956   0.1712   0.1092   1.0000
   C    C  -0.1299   0.3979   0.1788   1.0000
   O    O   0.2172   0.1431  -0.4491   1.0000
   O    O   0.2130   0.2812  -0.3802   1.0000
   O    O   0.3603   0.0336  -0.1827   1.0000
   O    O   0.4701   0.0567   0.0880   1.0000
   O    O   0.4263   0.0247   0.1415   1.0000
   O    O   0.4860   0.4424   0.2172   1.0000
   O    O  -0.4382   0.4403   0.4828   1.0000
   O    O   0.0047   0.0192   0.1170   1.0000
   H    H   0.3032   0.0682  -0.2795   1.0000
   H    H   0.3153   0.2490  -0.2580   1.0000
   H    H   0.2747   0.2624  -0.2422   1.0000
   H    H   0.2784   0.1574  -0.4077   1.0000
   H    H   0.2381   0.0747  -0.3053   1.0000
   H    H   0.2458   0.1232  -0.1991   1.0000
   H    H   0.3104   0.1462  -0.0987   1.0000
   H    H   0.2746   0.3752  -0.3897   1.0000
   H    H   0.3100   0.3113  -0.4043   1.0000
   H    H   0.2686   0.3123  -0.4899   1.0000
   H    H   0.2464   0.0159  -0.0858   1.0000
   H    H  -0.2251   0.4134  -0.3067   1.0000
   H    H   0.3708   0.1423   0.0039   1.0000
   H    H   0.3644   0.0196   0.0088   1.0000
   H    H  -0.2510   0.3515  -0.0282   1.0000
   H    H  -0.2218   0.2495  -0.2480   1.0000
   H    H  -0.0850   0.4946  -0.0561   1.0000
   H    H   0.4227   0.1167  -0.0472   1.0000
   H    H   0.1681   0.1480  -0.4306   1.0000
   H    H   0.1767   0.0542  -0.4976   1.0000
   H    H  -0.2883   0.1932  -0.0988   1.0000
   H    H  -0.1809   0.1690  -0.0939   1.0000
   H    H   0.1760   0.1766   0.3841   1.0000
   H    H   0.1667   0.2673   0.4495   1.0000
   H    H   0.1351   0.1780   0.4025   1.0000
   H    H  -0.2857   0.0276  -0.0435   1.0000
   H    H  -0.1784   0.0038  -0.0379   1.0000
   H    H   0.2692   0.4331  -0.0134   1.0000
   H    H   0.4853   0.0469   0.1489   1.0000
   H    H  -0.4562   0.3549   0.2457   1.0000
   H    H   0.0782   0.0282   0.1956   1.0000
   H    H   0.0805   0.0970   0.3267   1.0000
   H    H   0.0741   0.0794   0.4299   1.0000
   H    H  -0.4502   0.4144   0.0699   1.0000
   H    H  -0.4243   0.3204   0.1326   1.0000
   H    H  -0.4038   0.4170   0.0986   1.0000
   H    H  -0.3827   0.4661   0.3431   1.0000
   H    H  -0.3858   0.3495   0.2996   1.0000
   H    H  -0.3645   0.4395   0.2598   1.0000
   H    H  -0.4300   0.2581   0.4318   1.0000
   H    H  -0.4531   0.2865   0.3210   1.0000
   H    H  -0.4849   0.2862   0.4711   1.0000
   H    H   0.4919   0.3213   0.3612   1.0000
   H    H  -0.4962   0.1580   0.3071   1.0000
   H    H  -0.4754   0.1235   0.4186   1.0000
   H    H   0.0434   0.2098   0.2312   1.0000
   H    H   0.0047   0.0579   0.4140   1.0000
   H    H  -0.0125   0.3019   0.1774   1.0000
   H    H  -0.0511   0.1493   0.3603   1.0000
   H    H   0.4616   0.0702   0.3635   1.0000
   H    H   0.4679   0.1536   0.4501   1.0000
   H    H   0.4470   0.1885   0.3384   1.0000
   H    H   0.4655   0.4842   0.1988   1.0000
   H    H  -0.0489   0.3913   0.3398   1.0000
   H    H  -0.1500   0.2945   0.0742   1.0000
   H    H  -0.1032   0.4894   0.2897   1.0000
   H    H  -0.1537   0.4415   0.1568   1.0000
   H    H   0.4332   0.4814   0.0648   1.0000
   N    N   0.3185   0.1155  -0.1469   1.0000
   N    N  -0.4451   0.4668   0.3375   1.0000
   N    N  -0.0701   0.1062   0.1327   1.0000
   N    N  -0.1212   0.1467   0.0315   1.0000
   N    N  -0.0812   0.0440   0.0675   1.0000
   N    N  -0.1119   0.0655   0.0055   1.0000
