data_findsym-STRUC-5
# This file was generated by FINDSYM    
# Harold T. Stokes, Branton J. Campbell, Dorian M. Hatch
# Brigham Young University, Provo, Utah, USA
                                        
data_findsym-output                     
                                        
_symmetry_space_group_name_H-M 'C 1 2 1'
_symmetry_Int_Tables_number 5           
                                        
_cell_length_a      12.96180            
_cell_length_b      21.49890            
_cell_length_c      28.52600            
_cell_angle_alpha   90.00000            
_cell_angle_beta    89.17685            
_cell_angle_gamma   90.00000            
                                        
loop_                                   
_space_group_symop_operation_xyz        
x,y,z                                   
-x,y,-z                                 
x+1/2,y+1/2,z                           
-x+1/2,y+1/2,-z                         
                                        
loop_                                   
_atom_site_label                        
_atom_site_type_symbol                  
_atom_site_fract_x                      
_atom_site_fract_y                      
_atom_site_fract_z                      
_atom_site_occupancy                    
   C    C   0.1909   0.0273  -0.1445   1.0000
   C    C   0.2989   0.0561  -0.1404   1.0000
   C    C   0.2974   0.1228  -0.1204   1.0000
   C    C   0.1450   0.0084  -0.0960   1.0000
   C    C  -0.4604   0.4796  -0.0993   1.0000
   C    C   0.3924   0.1603  -0.1361   1.0000
   C    C   0.2941   0.1209  -0.0669   1.0000
   C    C  -0.3453   0.4704  -0.2182   1.0000
   C    C  -0.4773   0.4178  -0.0862   1.0000
   C    C  -0.0445   0.0150  -0.1145   1.0000
   C    C  -0.3382   0.4093  -0.2454   1.0000
   C    C   0.3405   0.4272  -0.1026   1.0000
   C    C   0.4250   0.3919  -0.0874   1.0000
   C    C   0.3579   0.4893  -0.1164   1.0000
   C    C  -0.3534   0.4207  -0.2977   1.0000
   C    C   0.2388   0.3988  -0.1031   1.0000
   C    C   0.1888   0.1544  -0.0008   1.0000
   C    C   0.1920   0.3739  -0.0637   1.0000
   C    C   0.1805   0.3985  -0.1464   1.0000
   C    C  -0.3620   0.3595  -0.3251   1.0000
   C    C   0.2496   0.2099   0.0174   1.0000
   C    C   0.0949   0.3464  -0.0644   1.0000
   C    C   0.0879   0.3721  -0.1483   1.0000
   C    C   0.0414   0.3450  -0.1060   1.0000
   C    C   0.2349   0.0531   0.2510   1.0000
   C    C   0.1310   0.0842   0.2628   1.0000
   C    C   0.3481   0.1335   0.2933   1.0000
   C    C   0.3837   0.1074   0.2107   1.0000
   C    C   0.0407   0.0431   0.2541   1.0000
   C    C   0.1216   0.1444   0.2342   1.0000
   C    C   0.3614   0.0703   0.1659   1.0000
   C    C  -0.2384   0.4978   0.2836   1.0000
   C    C   0.4032   0.0933   0.3288   1.0000
   C    C   0.4507   0.0252   0.1545   1.0000
   C    C  -0.0740   0.4858   0.1123   1.0000
   C    C   0.3582   0.0809   0.3725   1.0000
   C    C  -0.4995   0.0673   0.3178   1.0000
   C    C  -0.4955   0.0180   0.3939   1.0000
   C    C   0.4081   0.0436   0.4048   1.0000
   C    C  -0.4498   0.0302   0.3500   1.0000
   C    C   0.0146   0.4411   0.1026   1.0000
   C    C   0.0595   0.4791   0.4286   1.0000
   C    C   0.0410   0.4143   0.4321   1.0000
   C    C  -0.3700   0.0068   0.4587   1.0000
   C    C   0.0932   0.3793   0.4661   1.0000
   C    C   0.1811   0.4716   0.4920   1.0000
   C    C  -0.0333   0.3822   0.4001   1.0000
   C    C   0.1623   0.4079   0.4959   1.0000
   O    O   0.2059   0.1478  -0.0510   1.0000
   O    O   0.3592   0.0987  -0.0408   1.0000
   O    O   0.1160   0.0149  -0.2339   1.0000
   O    O  -0.3459   0.3700  -0.3717   1.0000
   O    O  -0.3810   0.3082  -0.3094   1.0000
   O    O  -0.1502   0.4694   0.2672   1.0000
   O    O   0.4555   0.1449   0.2115   1.0000
   O    O  -0.2853   0.4782   0.3179   1.0000
   H    H   0.1383   0.0617  -0.1611   1.0000
   H    H   0.3363   0.0568  -0.1751   1.0000
   H    H   0.3490   0.0260  -0.1188   1.0000
   H    H   0.2273   0.1470  -0.1326   1.0000
   H    H   0.1402   0.0496  -0.0733   1.0000
   H    H  -0.3014   0.4762  -0.0784   1.0000
   H    H  -0.2676   0.4337  -0.1617   1.0000
   H    H   0.4643   0.1383  -0.1248   1.0000
   H    H   0.3965   0.1641  -0.1742   1.0000
   H    H   0.3907   0.2075  -0.1218   1.0000
   H    H  -0.4118   0.3892  -0.0747   1.0000
   H    H  -0.0327   0.0638  -0.1250   1.0000
   H    H  -0.2631   0.3868  -0.2394   1.0000
   H    H  -0.3964   0.3767  -0.2315   1.0000
   H    H   0.4126   0.3435  -0.0767   1.0000
   H    H  -0.2074   0.0173  -0.1281   1.0000
   H    H  -0.4238   0.4482  -0.3039   1.0000
   H    H  -0.2904   0.4488  -0.3129   1.0000
   H    H   0.2094   0.1106   0.0170   1.0000
   H    H   0.1047   0.1616   0.0012   1.0000
   H    H   0.2346   0.3735  -0.0306   1.0000
   H    H   0.2149   0.4209  -0.1773   1.0000
   H    H   0.2317   0.2521  -0.0025   1.0000
   H    H   0.3329   0.2019   0.0141   1.0000
   H    H   0.2316   0.2189   0.0544   1.0000
   H    H   0.0576   0.3290  -0.0329   1.0000
   H    H   0.0386   0.3758  -0.1795   1.0000
   H    H  -0.0404   0.3300  -0.1072   1.0000
   H    H  -0.3526   0.3320  -0.3897   1.0000
   H    H   0.2298   0.0322   0.2157   1.0000
   H    H   0.1300   0.0959   0.3003   1.0000
   H    H   0.2767   0.1531   0.3086   1.0000
   H    H   0.3976   0.1730   0.2832   1.0000
   H    H  -0.4588   0.4985   0.2731   1.0000
   H    H   0.0307   0.0305   0.2163   1.0000
   H    H  -0.0331   0.0659   0.2645   1.0000
   H    H   0.1845   0.1768   0.2416   1.0000
   H    H   0.1234   0.1354   0.1960   1.0000
   H    H   0.0492   0.1684   0.2420   1.0000
   H    H   0.3486   0.1016   0.1357   1.0000
   H    H   0.2897   0.0450   0.1708   1.0000
   H    H  -0.4782   0.0509   0.1478   1.0000
   H    H  -0.0344   0.4958   0.1858   1.0000
   H    H  -0.1476   0.4621   0.1184   1.0000
   H    H   0.4140   0.0131   0.0811   1.0000
   H    H   0.2824   0.1010   0.3812   1.0000
   H    H  -0.4632   0.0771   0.2837   1.0000
   H    H   0.3719   0.0340   0.4390   1.0000
   H    H  -0.3740   0.0101   0.3413   1.0000
   H    H  -0.0071   0.4086   0.0735   1.0000
   H    H   0.0847   0.4588   0.0957   1.0000
   H    H   0.0239   0.4078   0.1332   1.0000
   H    H  -0.1149   0.4470   0.2918   1.0000
   H    H  -0.3552   0.0568   0.4557   1.0000
   H    H   0.0783   0.3294   0.4688   1.0000
   H    H   0.2358   0.4941  -0.4845   1.0000
   H    H   0.2020   0.3805  -0.4777   1.0000
   H    H  -0.1828   0.3652   0.3175   1.0000
   N    N  -0.3029   0.4723  -0.1753   1.0000
   N    N   0.3229   0.0974   0.2497   1.0000
   N    N  -0.0794   0.4078   0.3633   1.0000
   N    N  -0.0613   0.3214   0.4053   1.0000
   N    N  -0.1347   0.3610   0.3474   1.0000
   N    N  -0.1258   0.3082   0.3715   1.0000
