data_findsym-STRUC-8
# This file was generated by FINDSYM    
# Harold T. Stokes, Branton J. Campbell, Dorian M. Hatch
# Brigham Young University, Provo, Utah, USA
                                        
data_findsym-output                     
                                        
_symmetry_space_group_name_H-M 'C 1 2 1'
_symmetry_Int_Tables_number 5           
                                        
_cell_length_a      32.25397            
_cell_length_b      22.33454            
_cell_length_c      15.29000            
_cell_angle_alpha   90.00000            
_cell_angle_beta   115.33070            
_cell_angle_gamma   90.00000            
                                        
loop_                                   
_space_group_symop_operation_xyz        
x,y,z                                   
-x,y,-z                                 
x+1/2,y+1/2,z                           
-x+1/2,y+1/2,-z                         
                                        
loop_                                   
_atom_site_label                        
_atom_site_type_symbol                  
_atom_site_fract_x                      
_atom_site_fract_y                      
_atom_site_fract_z                      
_atom_site_occupancy                    
   C    C  -0.1475   0.0661  -0.3712   1.0000
   C    C  -0.1548   0.1278  -0.4210   1.0000
   C    C  -0.1173   0.1736  -0.3627   1.0000
   C    C  -0.1077   0.0308  -0.3784   1.0000
   C    C   0.3997   0.4702  -0.3311   1.0000
   C    C  -0.1348   0.2383  -0.3864   1.0000
   C    C  -0.0757   0.1663  -0.3850   1.0000
   C    C  -0.2163   0.0177  -0.3688   1.0000
   C    C   0.3927   0.4179  -0.3857   1.0000
   C    C   0.4147   0.4653  -0.2306   1.0000
   C    C   0.2412   0.4785  -0.4233   1.0000
   C    C   0.4165   0.3572  -0.2413   1.0000
   C    C   0.4013   0.3621  -0.3417   1.0000
   C    C   0.4228   0.4097  -0.1863   1.0000
   C    C   0.2071   0.4857  -0.3787   1.0000
   C    C   0.4258   0.2980  -0.1938   1.0000
   C    C   0.0056   0.1447  -0.3068   1.0000
   C    C   0.4567   0.2582  -0.2055   1.0000
   C    C   0.4038   0.2807  -0.1359   1.0000
   C    C   0.1677   0.4405  -0.4210   1.0000
   C    C   0.0266   0.2064  -0.3030   1.0000
   C    C   0.4658   0.2029  -0.1598   1.0000
   C    C   0.4128   0.2251  -0.0908   1.0000
   C    C   0.4438   0.1861  -0.1024   1.0000
   C    C  -0.2731   0.1845   0.0499   1.0000
   C    C  -0.2612   0.1504   0.1457   1.0000
   C    C  -0.2641   0.2905   0.1226   1.0000
   C    C  -0.3355   0.2625  -0.0178   1.0000
   C    C  -0.2512   0.0833   0.1392   1.0000
   C    C  -0.3008   0.1577   0.1748   1.0000
   C    C  -0.3648   0.2174  -0.0954   1.0000
   C    C  -0.2325   0.1898   0.0211   1.0000
   C    C  -0.2270   0.3171   0.0983   1.0000
   C    C  -0.3715   0.2386  -0.1964   1.0000
   C    C  -0.3972   0.1917  -0.2733   1.0000
   C    C  -0.1807   0.3086   0.1597   1.0000
   C    C  -0.2390   0.3501   0.0122   1.0000
   C    C  -0.1587   0.3651   0.0517   1.0000
   C    C  -0.1468   0.3323   0.1368   1.0000
   C    C  -0.2051   0.3738  -0.0105   1.0000
   C    C  -0.4012   0.2101  -0.3727   1.0000
   C    C  -0.1226   0.3917   0.0278   1.0000
   C    C  -0.1020   0.3583  -0.0221   1.0000
   C    C  -0.1082   0.4505   0.0555   1.0000
   C    C  -0.0672   0.3847  -0.0417   1.0000
   C    C  -0.0738   0.4760   0.0356   1.0000
   C    C  -0.1169   0.2950  -0.0548   1.0000
   C    C  -0.0535   0.4431  -0.0129   1.0000
   O    O  -0.0388   0.1509  -0.3039   1.0000
   O    O  -0.0747   0.1726  -0.4643   1.0000
   O    O  -0.2061   0.0353  -0.2851   1.0000
   O    O   0.1319   0.4584  -0.4018   1.0000
   O    O   0.1665   0.3947  -0.4647   1.0000
   O    O  -0.2480   0.2150  -0.0685   1.0000
   O    O  -0.3499   0.3132  -0.0155   1.0000
   O    O  -0.1928   0.1735   0.0658   1.0000
   H    H  -0.1396   0.0726  -0.2934   1.0000
   H    H  -0.1883   0.1454  -0.4315   1.0000
   H    H  -0.1570   0.1230  -0.4951   1.0000
   H    H  -0.1061   0.1657  -0.2844   1.0000
   H    H  -0.0759   0.0568  -0.3443   1.0000
   H    H  -0.1143   0.0262  -0.4553   1.0000
   H    H  -0.1989   0.0157  -0.4849   1.0000
   H    H  -0.1462   0.2485  -0.4633   1.0000
   H    H  -0.1638   0.2459  -0.3685   1.0000
   H    H  -0.1079   0.2705  -0.3447   1.0000
   H    H   0.3805   0.4210  -0.4647   1.0000
   H    H  -0.0797   0.0059  -0.1866   1.0000
   H    H   0.2249   0.4903   0.4994   1.0000
   H    H   0.2521   0.4316  -0.4202   1.0000
   H    H   0.3961   0.3214  -0.3853   1.0000
   H    H   0.4346   0.4062  -0.1077   1.0000
   H    H   0.2242   0.4794  -0.2995   1.0000
   H    H  -0.3070   0.0313  -0.3889   1.0000
   H    H   0.0013   0.1193  -0.3720   1.0000
   H    H   0.0248   0.1179  -0.2415   1.0000
   H    H   0.4741   0.2715  -0.2505   1.0000
   H    H   0.3794   0.3114  -0.1268   1.0000
   H    H   0.0282   0.2319  -0.2403   1.0000
   H    H   0.0062   0.2325  -0.3680   1.0000
   H    H   0.0614   0.2028  -0.2974   1.0000
   H    H   0.4902   0.1724  -0.1688   1.0000
   H    H   0.3954   0.2120  -0.0461   1.0000
   H    H   0.4510   0.1425  -0.0663   1.0000
   H    H   0.1069   0.4298  -0.4267   1.0000
   H    H  -0.2995   0.1587  -0.0095   1.0000
   H    H  -0.2301   0.1709   0.2012   1.0000
   H    H  -0.2490   0.2697   0.1949   1.0000
   H    H  -0.2870   0.3264   0.1249   1.0000
   H    H  -0.2234   0.0764   0.1179   1.0000
   H    H  -0.2816   0.0592   0.0873   1.0000
   H    H  -0.2412   0.0617   0.2102   1.0000
   H    H  -0.3073   0.2048   0.1843   1.0000
   H    H  -0.3332   0.1386   0.1204   1.0000
   H    H  -0.2935   0.1348   0.2430   1.0000
   H    H  -0.3985   0.2106  -0.0941   1.0000
   H    H  -0.3482   0.1739  -0.0792   1.0000
   H    H  -0.3902   0.2816  -0.2146   1.0000
   H    H  -0.3377   0.2478  -0.1958   1.0000
   H    H  -0.3795   0.1479  -0.2526   1.0000
   H    H  -0.4318   0.1842  -0.2766   1.0000
   H    H  -0.1713   0.2829   0.2268   1.0000
   H    H  -0.2751   0.3574  -0.0362   1.0000
   H    H  -0.1105   0.3253   0.1857   1.0000
   H    H  -0.2145   0.3994  -0.0775   1.0000
   H    H  -0.4195   0.1765  -0.4277   1.0000
   H    H  -0.4198   0.2528  -0.3965   1.0000
   H    H  -0.3673   0.2164  -0.3721   1.0000
   H    H  -0.2233   0.2341  -0.0790   1.0000
   H    H  -0.1242   0.4764   0.0935   1.0000
   H    H  -0.0515   0.3587  -0.0801   1.0000
   H    H   0.4372   0.0221   0.0582   1.0000
   H    H  -0.0266   0.4631  -0.0283   1.0000
   H    H  -0.1745   0.1791  -0.0952   1.0000
   N    N  -0.1905   0.0315  -0.4163   1.0000
   N    N  -0.2925   0.2450   0.0487   1.0000
   N    N  -0.1523   0.2667  -0.0504   1.0000
   N    N  -0.0950   0.2594  -0.0942   1.0000
   N    N  -0.1506   0.2140  -0.0876   1.0000
   N    N  -0.1168   0.2079  -0.1151   1.0000
