data_findsym-STRUC-7
# This file was generated by FINDSYM    
# Harold T. Stokes, Branton J. Campbell, Dorian M. Hatch
# Brigham Young University, Provo, Utah, USA
                                        
data_findsym-output                     
                                        
_symmetry_space_group_name_H-M 'P 1'    
_symmetry_Int_Tables_number 1           
                                        
_cell_length_a      14.83400            
_cell_length_b      14.83400            
_cell_length_c      25.59900            
_cell_angle_alpha  102.88100            
_cell_angle_beta    77.11900            
_cell_angle_gamma  113.54500            
                                        
loop_                                   
_space_group_symop_operation_xyz        
x,y,z                                   
                                        
loop_                                   
_atom_site_label                        
_atom_site_type_symbol                  
_atom_site_fract_x                      
_atom_site_fract_y                      
_atom_site_fract_z                      
_atom_site_occupancy                    
   C    C   0.1202   0.0467   0.0246   1.0000
   C    C   0.2285   0.0614   0.0264   1.0000
   C    C   0.2426   0.0427   0.0805   1.0000
   C    C   0.0516  -0.0646   0.0181   1.0000
   C    C  -0.0543  -0.0806   0.0157   1.0000
   C    C   0.3499   0.0992   0.0920   1.0000
   C    C   0.2167  -0.0683   0.0794   1.0000
   C    C   0.0960   0.1747  -0.0129   1.0000
   C    C  -0.0972  -0.1303  -0.0310   1.0000
   C    C  -0.1125  -0.0475   0.0611   1.0000
   C    C   0.0926   0.2105  -0.0641   1.0000
   C    C  -0.2543  -0.1158   0.0128   1.0000
   C    C  -0.1959  -0.1486  -0.0325   1.0000
   C    C  -0.2107  -0.0644   0.0596   1.0000
   C    C   0.1040   0.3198  -0.0514   1.0000
   C    C  -0.3594  -0.1351   0.0116   1.0000
   C    C   0.1051  -0.2056   0.1265   1.0000
   C    C  -0.4266  -0.2324  -0.0011   1.0000
   C    C  -0.3936  -0.0561   0.0235   1.0000
   C    C   0.0853   0.3543  -0.0988   1.0000
   C    C   0.1736  -0.2166   0.1591   1.0000
   C    C   0.4743  -0.2502  -0.0015   1.0000
   C    C  -0.4927  -0.0743   0.0226   1.0000
   C    C   0.4406  -0.1716   0.0102   1.0000
   C    C  -0.0582   0.0893  -0.4801   1.0000
   C    C  -0.0667   0.1905  -0.4774   1.0000
   C    C   0.0123   0.2777  -0.4474   1.0000
   C    C   0.0320   0.0781   0.4787   1.0000
   C    C   0.0410  -0.0208   0.4749   1.0000
   C    C  -0.0225   0.3649  -0.4233   1.0000
   C    C   0.1094   0.3149  -0.4860   1.0000
   C    C  -0.2160  -0.0523  -0.4603   1.0000
   C    C   0.0308  -0.0885   0.4270   1.0000
   C    C   0.0621  -0.0457  -0.4806   1.0000
   C    C  -0.3067  -0.1355  -0.4826   1.0000
   C    C   0.0644  -0.2026   0.4672   1.0000
   C    C   0.0430  -0.1779   0.4228   1.0000
   C    C   0.0731  -0.1353  -0.4842   1.0000
   C    C  -0.3894  -0.1729  -0.4360   1.0000
   C    C   0.0777  -0.2975   0.4631   1.0000
   C    C   0.2833   0.3381  -0.4982   1.0000
   C    C   0.1484  -0.3226   0.4225   1.0000
   C    C   0.0200  -0.3638   0.4999   1.0000
   C    C  -0.4749  -0.2661  -0.4558   1.0000
   C    C   0.3322   0.4501  -0.4822   1.0000
   C    C   0.1613  -0.4114   0.4193   1.0000
   C    C   0.0329  -0.4525   0.4962   1.0000
   C    C   0.1038  -0.4768   0.4559   1.0000
   C    C   0.2106  -0.0516  -0.2634   1.0000
   C    C   0.2645   0.0626  -0.2532   1.0000
   C    C   0.3471  -0.0862  -0.3376   1.0000
   C    C   0.1739  -0.1509  -0.3551   1.0000
   C    C   0.2180   0.1125  -0.2006   1.0000
   C    C   0.2633   0.1060  -0.3020   1.0000
   C    C   0.0639  -0.1653  -0.3369   1.0000
   C    C   0.2216  -0.1067  -0.2217   1.0000
   C    C   0.3743  -0.1547  -0.3132   1.0000
   C    C   0.0005  -0.2755  -0.3329   1.0000
   C    C  -0.1079  -0.2896  -0.3103   1.0000
   C    C   0.4455  -0.1159  -0.2785   1.0000
   C    C   0.3267  -0.2586  -0.3248   1.0000
   C    C   0.4227  -0.2814  -0.2676   1.0000
   C    C   0.4698  -0.1785  -0.2557   1.0000
   C    C   0.3508  -0.3210  -0.3024   1.0000
   C    C  -0.1701  -0.3973  -0.3025   1.0000
   C    C   0.4496  -0.3490  -0.2444   1.0000
   C    C   0.4031  -0.3767  -0.1926   1.0000
   C    C  -0.4774  -0.3854  -0.2737   1.0000
   C    C   0.4322  -0.4394  -0.1716   1.0000
   C    C  -0.4495  -0.4472  -0.2524   1.0000
   C    C   0.3230  -0.3406  -0.1598   1.0000
   C    C  -0.4946  -0.4738  -0.2013   1.0000
   C    C  -0.0516   0.2106   0.2634   1.0000
   C    C   0.0627   0.2644   0.2532   1.0000
   C    C  -0.0862   0.3471   0.3376   1.0000
   C    C  -0.1507   0.1741   0.3550   1.0000
   C    C   0.1125   0.2180   0.2005   1.0000
   C    C   0.1059   0.2634   0.3020   1.0000
   C    C  -0.1654   0.0639   0.3369   1.0000
   C    C  -0.1066   0.2218   0.2215   1.0000
   C    C  -0.1547   0.3744   0.3132   1.0000
   C    C  -0.2754   0.0005   0.3329   1.0000
   C    C  -0.2897  -0.1079   0.3103   1.0000
   C    C  -0.1158   0.4456   0.2785   1.0000
   C    C  -0.2587   0.3269   0.3251   1.0000
   C    C  -0.2815   0.4227   0.2676   1.0000
   C    C  -0.1785   0.4697   0.2557   1.0000
   C    C  -0.3211   0.3509   0.3025   1.0000
   C    C  -0.3973  -0.1701   0.3025   1.0000
   C    C  -0.3490   0.4496   0.2443   1.0000
   C    C  -0.3767   0.4031   0.1926   1.0000
   C    C  -0.3853  -0.4774   0.2737   1.0000
   C    C  -0.4394   0.4322   0.1716   1.0000
   C    C  -0.4472  -0.4495   0.2524   1.0000
   C    C  -0.3406   0.3229   0.1598   1.0000
   C    C  -0.4739  -0.4946   0.2013   1.0000
   O    O   0.1393  -0.1022   0.1182   1.0000
   O    O   0.2577  -0.1211   0.0483   1.0000
   O    O   0.0781   0.2185   0.0330   1.0000
   O    O   0.1226   0.4549  -0.0931   1.0000
   O    O   0.0429   0.3023  -0.1367   1.0000
   O    O   0.1822   0.3026  -0.4690   1.0000
   O    O   0.1221   0.3500   0.4726   1.0000
   O    O  -0.2030  -0.0427  -0.4129   1.0000
   O    O   0.4427  -0.2809  -0.4182   1.0000
   O    O  -0.4731  -0.3219  -0.4985   1.0000
   O    O   0.1633  -0.2049  -0.2310   1.0000
   O    O   0.2024  -0.1871  -0.4008   1.0000
   O    O   0.2703  -0.0725  -0.1842   1.0000
   O    O  -0.2050   0.1632   0.2311   1.0000
   O    O  -0.1872   0.2023   0.4009   1.0000
   O    O  -0.0726   0.2703   0.1843   1.0000
   H    H   0.0911   0.0861   0.0629   1.0000
   H    H   0.2770   0.1373   0.0199   1.0000
   H    H   0.2547   0.0129  -0.0080   1.0000
   H    H   0.1919   0.0672   0.1140   1.0000
   H    H   0.0526  -0.0979   0.0521   1.0000
   H    H   0.0820  -0.1051  -0.0186   1.0000
   H    H   0.1318   0.0556  -0.0590   1.0000
   H    H   0.4031   0.0771   0.0599   1.0000
   H    H   0.3704   0.1793   0.0947   1.0000
   H    H   0.3593   0.0855   0.1304   1.0000
   H    H  -0.0522  -0.1557  -0.0671   1.0000
   H    H  -0.0799  -0.0082   0.0981   1.0000
   H    H   0.1509   0.1996  -0.0970   1.0000
   H    H   0.0216   0.1637  -0.0789   1.0000
   H    H  -0.2289  -0.1883  -0.0693   1.0000
   H    H  -0.2559  -0.0387   0.0953   1.0000
   H    H   0.0517   0.3330  -0.0152   1.0000
   H    H   0.1782   0.3681  -0.0410   1.0000
   H    H   0.1012  -0.2541   0.0869   1.0000
   H    H   0.0298  -0.2174   0.1489   1.0000
   H    H  -0.4004  -0.2945  -0.0103   1.0000
   H    H  -0.3413   0.0202   0.0331   1.0000
   H    H   0.1804  -0.1637   0.1970   1.0000
   H    H   0.2485  -0.2024   0.1363   1.0000
   H    H   0.1452  -0.2915   0.1697   1.0000
   H    H   0.4221  -0.3264  -0.0112   1.0000
   H    H   0.4813  -0.0123   0.0317   1.0000
   H    H   0.3630  -0.1854   0.0099   1.0000
   H    H   0.1105   0.4786  -0.1223   1.0000
   H    H  -0.0501   0.0816  -0.4392   1.0000
   H    H  -0.1407   0.1873  -0.4569   1.0000
   H    H  -0.0624   0.2051   0.4813   1.0000
   H    H   0.0277   0.2517  -0.4142   1.0000
   H    H   0.1007   0.1375   0.4902   1.0000
   H    H   0.0267   0.0894   0.4383   1.0000
   H    H  -0.1617  -0.0006   0.4654   1.0000
   H    H  -0.0383   0.3934  -0.4546   1.0000
   H    H  -0.0903   0.3420  -0.3940   1.0000
   H    H   0.0341   0.4266  -0.4021   1.0000
   H    H   0.0132  -0.0706   0.3919   1.0000
   H    H   0.0703   0.0067  -0.4425   1.0000
   H    H  -0.3334  -0.1091   0.4891   1.0000
   H    H  -0.2837  -0.1961   0.4932   1.0000
   H    H   0.0356  -0.2301   0.3848   1.0000
   H    H   0.0901  -0.1541  -0.4494   1.0000
   H    H  -0.3609  -0.1908  -0.4049   1.0000
   H    H  -0.4189  -0.1152  -0.4145   1.0000
   H    H   0.2812   0.3167   0.4578   1.0000
   H    H   0.3178   0.2958  -0.4846   1.0000
   H    H   0.1938  -0.2711   0.3936   1.0000
   H    H  -0.0358  -0.3448  -0.4685   1.0000
   H    H   0.3286   0.4699  -0.4379   1.0000
   H    H   0.2951   0.4901  -0.4953   1.0000
   H    H   0.4104   0.4776   0.4999   1.0000
   H    H   0.2172  -0.4302   0.3877   1.0000
   H    H  -0.0125   0.4962  -0.4750   1.0000
   H    H   0.1140   0.4538   0.4534   1.0000
   H    H   0.3876  -0.3404  -0.4292   1.0000
   H    H   0.1299  -0.0682  -0.2585   1.0000
   H    H   0.3417   0.0780  -0.2494   1.0000
   H    H   0.3955  -0.0080  -0.3271   1.0000
   H    H   0.3588  -0.1039  -0.3821   1.0000
   H    H   0.2168   0.0830  -0.1650   1.0000
   H    H   0.1413   0.1036  -0.2023   1.0000
   H    H   0.2613   0.1933  -0.1941   1.0000
   H    H   0.3000   0.0752  -0.3396   1.0000
   H    H   0.1870   0.0910  -0.3081   1.0000
   H    H   0.3020   0.1865  -0.2966   1.0000
   H    H   0.0364  -0.1385  -0.3648   1.0000
   H    H   0.0558  -0.1196  -0.2979   1.0000
   H    H   0.0052  -0.3214  -0.3731   1.0000
   H    H   0.0312  -0.3028  -0.3068   1.0000
   H    H  -0.1121  -0.2402  -0.2712   1.0000
   H    H  -0.1398  -0.2661  -0.3376   1.0000
   H    H   0.4827  -0.0348  -0.2692   1.0000
   H    H   0.2713  -0.2899  -0.3526   1.0000
   H    H  -0.4743  -0.1470  -0.2283   1.0000
   H    H   0.3138  -0.4021  -0.3118   1.0000
   H    H  -0.2475  -0.4073  -0.2862   1.0000
   H    H  -0.1697  -0.4482  -0.3410   1.0000
   H    H  -0.1416  -0.4220  -0.2744   1.0000
   H    H   0.1868  -0.2464  -0.2172   1.0000
   H    H  -0.4419  -0.3644  -0.3138   1.0000
   H    H   0.3962  -0.4603  -0.1316   1.0000
   H    H  -0.3920  -0.4746  -0.2758   1.0000
   H    H  -0.4722   0.4779  -0.1846   1.0000
   H    H   0.1691  -0.2389  -0.1330   1.0000
   H    H  -0.0682   0.1299   0.2585   1.0000
   H    H   0.0780   0.3417   0.2493   1.0000
   H    H  -0.0080   0.3955   0.3271   1.0000
   H    H  -0.1038   0.3589   0.3821   1.0000
   H    H   0.0831   0.2168   0.1649   1.0000
   H    H   0.1036   0.1413   0.2023   1.0000
   H    H   0.1933   0.2613   0.1941   1.0000
   H    H   0.0752   0.3000   0.3396   1.0000
   H    H   0.0910   0.1870   0.3081   1.0000
   H    H   0.1865   0.3020   0.2966   1.0000
   H    H  -0.1384   0.0364   0.3649   1.0000
   H    H  -0.1196   0.0558   0.2979   1.0000
   H    H  -0.3214   0.0052   0.3731   1.0000
   H    H  -0.3028   0.0312   0.3068   1.0000
   H    H  -0.2402  -0.1121   0.2712   1.0000
   H    H  -0.2661  -0.1398   0.3376   1.0000
   H    H  -0.0348   0.4827   0.2692   1.0000
   H    H  -0.2899   0.2714   0.3526   1.0000
   H    H  -0.1470  -0.4743   0.2283   1.0000
   H    H  -0.4020   0.3138   0.3118   1.0000
   H    H  -0.4073  -0.2475   0.2862   1.0000
   H    H  -0.4482  -0.1697   0.3410   1.0000
   H    H  -0.4220  -0.1416   0.2744   1.0000
   H    H  -0.2464   0.1868   0.2172   1.0000
   H    H  -0.3644  -0.4419   0.3138   1.0000
   H    H  -0.4603   0.3962   0.1316   1.0000
   H    H  -0.4746  -0.3920   0.2758   1.0000
   H    H   0.4779  -0.4722   0.1846   1.0000
   H    H  -0.2388   0.1691   0.1330   1.0000
   N    N   0.1190   0.0922  -0.0207   1.0000
   N    N  -0.1508   0.0094  -0.4951   1.0000
   N    N   0.2401  -0.0972  -0.3190   1.0000
   N    N   0.2809  -0.2903  -0.1768   1.0000
   N    N   0.2835  -0.3570  -0.1078   1.0000
   N    N   0.2166  -0.2776  -0.1338   1.0000
   N    N   0.2155  -0.3170  -0.0915   1.0000
   N    N  -0.0973   0.2399   0.3190   1.0000
   N    N  -0.2903   0.2809   0.1767   1.0000
   N    N  -0.3573   0.2834   0.1078   1.0000
   N    N  -0.2776   0.2166   0.1338   1.0000
   N    N  -0.3170   0.2155   0.0916   1.0000
