data_findsym-STRUC-9
# This file was generated by FINDSYM    
# Harold T. Stokes, Branton J. Campbell, Dorian M. Hatch
# Brigham Young University, Provo, Utah, USA
                                        
data_findsym-output                     
                                        
_symmetry_space_group_name_H-M 'C 1 2 1'
_symmetry_Int_Tables_number 5           
                                        
_cell_length_a      19.42282            
_cell_length_b      20.75278            
_cell_length_c      24.70800            
_cell_angle_alpha   90.00000            
_cell_angle_beta    88.38426            
_cell_angle_gamma   90.00000            
                                        
loop_                                   
_space_group_symop_operation_xyz        
x,y,z                                   
-x,y,-z                                 
x+1/2,y+1/2,z                           
-x+1/2,y+1/2,-z                         
                                        
loop_                                   
_atom_site_label                        
_atom_site_type_symbol                  
_atom_site_fract_x                      
_atom_site_fract_y                      
_atom_site_fract_z                      
_atom_site_occupancy                    
   C    C  -0.1659   0.4391  -0.2932   1.0000
   C    C  -0.1393   0.4114  -0.2396   1.0000
   C    C  -0.0599   0.4110  -0.2374   1.0000
   C    C   0.3414   0.0123  -0.2965   1.0000
   C    C   0.3156   0.0411  -0.3477   1.0000
   C    C  -0.0340   0.3591  -0.1986   1.0000
   C    C  -0.0336   0.4767  -0.2187   1.0000
   C    C  -0.2608   0.3790  -0.3356   1.0000
   C    C   0.2592   0.0832  -0.3470   1.0000
   C    C   0.3481   0.0268  -0.3976   1.0000
   C    C  -0.3389   0.3676  -0.3377   1.0000
   C    C   0.2692   0.0968  -0.4439   1.0000
   C    C   0.2366   0.1110  -0.3941   1.0000
   C    C   0.3252   0.0538  -0.4450   1.0000
   C    C  -0.3534   0.3038  -0.3659   1.0000
   C    C   0.2456   0.1262  -0.4944   1.0000
   C    C  -0.4599   0.0646  -0.2481   1.0000
   C    C   0.2414   0.1935  -0.4996   1.0000
   C    C   0.2270   0.0874   0.4618   1.0000
   C    C  -0.4303   0.2955  -0.3764   1.0000
   C    C  -0.3962   0.0535  -0.2147   1.0000
   C    C   0.2198   0.2212   0.4526   1.0000
   C    C   0.2051   0.1152   0.4141   1.0000
   C    C   0.2016   0.1820   0.4093   1.0000
   C    C   0.3245   0.2223  -0.1347   1.0000
   C    C   0.3724   0.2817  -0.1313   1.0000
   C    C   0.4212   0.1372  -0.1346   1.0000
   C    C   0.3361   0.1369  -0.2064   1.0000
   C    C   0.3334   0.3441  -0.1165   1.0000
   C    C   0.4115   0.2897  -0.1855   1.0000
   C    C   0.2716   0.1636  -0.2330   1.0000
   C    C   0.2910   0.2017  -0.0795   1.0000
   C    C   0.4018   0.0975  -0.0848   1.0000
   C    C   0.2120   0.1147  -0.2284   1.0000
   C    C   0.1458   0.1430  -0.2508   1.0000
   C    C   0.4238   0.1156  -0.0339   1.0000
   C    C   0.3603   0.0421  -0.0895   1.0000
   C    C   0.3647   0.0249   0.0070   1.0000
   C    C   0.4054   0.0799   0.0118   1.0000
   C    C   0.3422   0.0064  -0.0441   1.0000
   C    C   0.0854   0.0967  -0.2435   1.0000
   C    C  -0.1540   0.4855   0.0555   1.0000
   C    C   0.2874   0.0006   0.0887   1.0000
   C    C  -0.1130   0.4331   0.0690   1.0000
   C    C  -0.2276   0.4629   0.1348   1.0000
   C    C  -0.1286   0.3961   0.1148   1.0000
   C    C   0.2410   0.0561   0.0752   1.0000
   C    C  -0.1857   0.4114   0.1477   1.0000
   O    O  -0.4938   0.0031  -0.2580   1.0000
   O    O   0.4541   0.0024  -0.1749   1.0000
   O    O  -0.2199   0.3511  -0.3673   1.0000
   O    O  -0.4445   0.2323  -0.3869   1.0000
   O    O  -0.4743   0.3370  -0.3764   1.0000
   O    O   0.2447   0.1536  -0.0881   1.0000
   O    O   0.3670   0.0911  -0.2253   1.0000
   O    O   0.3000   0.2240  -0.0345   1.0000
   H    H  -0.1366   0.4168  -0.3277   1.0000
   H    H  -0.1583   0.3621  -0.2343   1.0000
   H    H  -0.1615   0.4384  -0.2044   1.0000
   H    H  -0.0379   0.4016  -0.2785   1.0000
   H    H   0.3962   0.0261  -0.2926   1.0000
   H    H   0.3155   0.0349  -0.2611   1.0000
   H    H  -0.2735   0.4447  -0.2725   1.0000
   H    H  -0.0542   0.3666  -0.1572   1.0000
   H    H  -0.0499   0.3111  -0.2116   1.0000
   H    H   0.0224   0.3592  -0.1974   1.0000
   H    H   0.2329   0.0943  -0.3088   1.0000
   H    H  -0.1076   0.4939  -0.3990   1.0000
   H    H  -0.3624   0.3681  -0.2966   1.0000
   H    H  -0.3624   0.4081  -0.3591   1.0000
   H    H   0.1926   0.1443  -0.3927   1.0000
   H    H   0.3511   0.0424  -0.4839   1.0000
   H    H  -0.3249   0.3004  -0.4050   1.0000
   H    H  -0.3352   0.2625  -0.3423   1.0000
   H    H  -0.4970   0.0978  -0.2282   1.0000
   H    H  -0.4475   0.0812  -0.2894   1.0000
   H    H   0.2559   0.2242  -0.4656   1.0000
   H    H   0.2297   0.0348   0.4657   1.0000
   H    H  -0.3619   0.0177  -0.2340   1.0000
   H    H  -0.4100   0.0357  -0.1741   1.0000
   H    H  -0.3668   0.0981  -0.2102   1.0000
   H    H   0.2172   0.2736   0.4487   1.0000
   H    H   0.1905   0.0845   0.3803   1.0000
   H    H   0.1847   0.2039   0.3717   1.0000
   H    H  -0.4927   0.2263  -0.3945   1.0000
   H    H   0.2807   0.2352  -0.1601   1.0000
   H    H   0.4093   0.2722  -0.0993   1.0000
   H    H   0.4572   0.1761  -0.1243   1.0000
   H    H   0.4480   0.1062  -0.1646   1.0000
   H    H   0.3043   0.3402  -0.0782   1.0000
   H    H   0.2972   0.3582  -0.1477   1.0000
   H    H   0.3699   0.3846  -0.1125   1.0000
   H    H   0.4423   0.2470  -0.1959   1.0000
   H    H   0.3766   0.2983  -0.2193   1.0000
   H    H   0.4466   0.3307  -0.1845   1.0000
   H    H   0.2823   0.1764  -0.2760   1.0000
   H    H   0.2568   0.2083  -0.2132   1.0000
   H    H   0.2258   0.0700  -0.2508   1.0000
   H    H   0.2038   0.0998  -0.1863   1.0000
   H    H   0.1339   0.1891  -0.2303   1.0000
   H    H   0.1534   0.1553  -0.2941   1.0000
   H    H   0.4561   0.1588  -0.0301   1.0000
   H    H   0.3434   0.0271  -0.1294   1.0000
   H    H   0.4230   0.0947   0.0517   1.0000
   H    H  -0.1900   0.4632  -0.0479   1.0000
   H    H   0.0380   0.1171  -0.2591   1.0000
   H    H   0.0951   0.0509  -0.2649   1.0000
   H    H   0.0756   0.0849  -0.2006   1.0000
   H    H   0.2367   0.1274  -0.0558   1.0000
   H    H  -0.0679   0.4213   0.0433   1.0000
   H    H  -0.2728   0.4747   0.1603   1.0000
   H    H  -0.0956   0.3554   0.1250   1.0000
   H    H  -0.1977   0.3823   0.1837   1.0000
   H    H   0.1813   0.1687   0.0094   1.0000
   N    N  -0.2389   0.4210  -0.2978   1.0000
   N    N   0.3587   0.1656  -0.1604   1.0000
   N    N   0.2447   0.0914   0.0302   1.0000
   N    N   0.1883   0.0762   0.1087   1.0000
   N    N   0.1935   0.1324   0.0382   1.0000
   N    N   0.1582   0.1248   0.0848   1.0000
