data_findsym-STRUC-10
# This file was generated by FINDSYM    
# Harold T. Stokes, Branton J. Campbell, Dorian M. Hatch
# Brigham Young University, Provo, Utah, USA
                                        
data_findsym-output                     
                                        
_symmetry_space_group_name_H-M 'P 1'    
_symmetry_Int_Tables_number 1           
                                        
_cell_length_a      19.81500            
_cell_length_b      15.11800            
_cell_length_c      14.59700            
_cell_angle_alpha  101.79300            
_cell_angle_beta    85.52900            
_cell_angle_gamma  112.42500            
                                        
loop_                                   
_space_group_symop_operation_xyz        
x,y,z                                   
                                        
loop_                                   
_atom_site_label                        
_atom_site_type_symbol                  
_atom_site_fract_x                      
_atom_site_fract_y                      
_atom_site_fract_z                      
_atom_site_occupancy                    
   C    C   0.4805  -0.0988  -0.4324   1.0000
   C    C   0.4845  -0.1446  -0.3487   1.0000
   C    C  -0.4421  -0.1567  -0.3431   1.0000
   C    C  -0.4725   0.0117  -0.4168   1.0000
   C    C  -0.4765   0.0577  -0.4975   1.0000
   C    C  -0.4498  -0.2387  -0.2911   1.0000
   C    C  -0.3846  -0.0619  -0.2932   1.0000
   C    C   0.3650  -0.1750   0.4765   1.0000
   C    C   0.4934   0.1277  -0.4866   1.0000
   C    C  -0.4482   0.0313   0.4145   1.0000
   C    C   0.2868  -0.1808   0.4677   1.0000
   C    C  -0.4793   0.1477   0.3533   1.0000
   C    C   0.4922   0.1724   0.4387   1.0000
   C    C  -0.4499   0.0752   0.3408   1.0000
   C    C   0.2424  -0.2746   0.4018   1.0000
   C    C  -0.4801   0.1959   0.2750   1.0000
   C    C  -0.2669   0.0588  -0.3166   1.0000
   C    C  -0.4474   0.2978   0.2846   1.0000
   C    C   0.4869   0.1404   0.1895   1.0000
   C    C   0.1676  -0.2763   0.3791   1.0000
   C    C  -0.2165   0.0319  -0.2620   1.0000
   C    C  -0.4476   0.3426   0.2105   1.0000
   C    C   0.4865   0.1854   0.1158   1.0000
   C    C  -0.4806   0.2866   0.1259   1.0000
   C    C   0.4805  -0.4207   0.4324   1.0000
   C    C   0.4845  -0.3709   0.3487   1.0000
   C    C  -0.4420  -0.2854   0.3431   1.0000
   C    C  -0.4725  -0.4842   0.4168   1.0000
   C    C  -0.4765   0.4658   0.4975   1.0000
   C    C  -0.4498  -0.2111   0.2911   1.0000
   C    C  -0.3849  -0.3228   0.2929   1.0000
   C    C   0.3650  -0.4600  -0.4765   1.0000
   C    C   0.4934   0.3657   0.4866   1.0000
   C    C  -0.4482  -0.4794  -0.4145   1.0000
   C    C   0.2867   0.4675  -0.4677   1.0000
   C    C  -0.4793   0.3730  -0.3533   1.0000
   C    C   0.4922   0.3198  -0.4387   1.0000
   C    C  -0.4499   0.4749  -0.3408   1.0000
   C    C   0.2424  -0.4830  -0.4017   1.0000
   C    C  -0.4801   0.3240  -0.2750   1.0000
   C    C  -0.2662  -0.3259   0.3165   1.0000
   C    C  -0.4474   0.2548  -0.2846   1.0000
   C    C   0.4869   0.3466  -0.1895   1.0000
   C    C   0.1676   0.4432  -0.3798   1.0000
   C    C  -0.2167  -0.2504   0.2614   1.0000
   C    C  -0.4479   0.2097  -0.2106   1.0000
   C    C   0.4865   0.3011  -0.1158   1.0000
   C    C  -0.4807   0.2328  -0.1259   1.0000
   C    C  -0.0955   0.4065  -0.0172   1.0000
   C    C  -0.1672   0.3165  -0.0362   1.0000
   C    C  -0.2134   0.3201  -0.1148   1.0000
   C    C  -0.0382   0.4041  -0.0953   1.0000
   C    C   0.0326   0.4910  -0.0775   1.0000
   C    C  -0.2946   0.2591  -0.1046   1.0000
   C    C  -0.1871   0.2828  -0.2102   1.0000
   C    C  -0.0632   0.4806   0.1492   1.0000
   C    C   0.0974   0.4793  -0.0628   1.0000
   C    C   0.0349  -0.4155  -0.0769   1.0000
   C    C  -0.0273   0.4782   0.2380   1.0000
   C    C   0.1654  -0.3475  -0.0505   1.0000
   C    C   0.1629  -0.4415  -0.0501   1.0000
   C    C   0.1003  -0.3356  -0.0637   1.0000
   C    C  -0.0523  -0.4653   0.3240   1.0000
   C    C   0.2351  -0.2628  -0.0373   1.0000
   C    C  -0.1389   0.3311  -0.3573   1.0000
   C    C   0.2949  -0.2616  -0.0961   1.0000
   C    C   0.2425  -0.1819   0.0341   1.0000
   C    C  -0.0096  -0.4539   0.4124   1.0000
   C    C  -0.2050   0.2788  -0.4216   1.0000
   C    C   0.3602  -0.1811  -0.0841   1.0000
   C    C   0.3080  -0.1017   0.0464   1.0000
   C    C   0.3669  -0.1011  -0.0129   1.0000
   C    C  -0.1497  -0.0924  -0.0079   1.0000
   C    C  -0.2197  -0.0803   0.0374   1.0000
   C    C  -0.1100   0.0555  -0.0897   1.0000
   C    C  -0.1225  -0.1062  -0.1810   1.0000
   C    C  -0.2514  -0.1412   0.1142   1.0000
   C    C  -0.2765  -0.1076  -0.0390   1.0000
   C    C  -0.1389  -0.2151  -0.1877   1.0000
   C    C  -0.0831  -0.0507   0.0592   1.0000
   C    C  -0.0352   0.1172  -0.0476   1.0000
   C    C  -0.0691  -0.2367  -0.2124   1.0000
   C    C  -0.0830  -0.3432  -0.2115   1.0000
   C    C  -0.0276   0.1835   0.0366   1.0000
   C    C   0.0278   0.1074  -0.0927   1.0000
   C    C   0.1032   0.2293   0.0309   1.0000
   C    C   0.0408   0.2391   0.0758   1.0000
   C    C   0.0961   0.1628  -0.0537   1.0000
   C    C  -0.0134  -0.3637  -0.2298   1.0000
   C    C   0.1769   0.2901   0.0713   1.0000
   C    C   0.2069   0.2604   0.1390   1.0000
   C    C   0.2169   0.3782   0.0428   1.0000
   C    C   0.2763   0.3212   0.1769   1.0000
   C    C   0.2854   0.4375   0.0808   1.0000
   C    C   0.1662   0.1652   0.1709   1.0000
   C    C   0.3148   0.4088   0.1481   1.0000
   O    O  -0.3297  -0.0284  -0.3514   1.0000
   O    O  -0.3876  -0.0204  -0.2110   1.0000
   O    O   0.3919  -0.2230   0.4157   1.0000
   O    O   0.1252  -0.3646   0.3419   1.0000
   O    O   0.1486  -0.2065   0.3902   1.0000
   O    O  -0.3293  -0.3015   0.3513   1.0000
   O    O  -0.3876  -0.3671   0.2112   1.0000
   O    O   0.3918  -0.3852  -0.4157   1.0000
   O    O   0.1221   0.4908  -0.3441   1.0000
   O    O   0.1488   0.3557  -0.3900   1.0000
   O    O  -0.1629   0.3529  -0.2613   1.0000
   O    O  -0.1860   0.2041  -0.2379   1.0000
   O    O  -0.0879  -0.4558   0.1475   1.0000
   O    O  -0.0453  -0.4279   0.4903   1.0000
   O    O   0.0463  -0.4649   0.4171   1.0000
   O    O  -0.0272  -0.0741   0.0152   1.0000
   O    O  -0.1043  -0.0687  -0.2506   1.0000
   O    O  -0.0780  -0.0062   0.1400   1.0000
   H    H   0.4999  -0.1364  -0.4967   1.0000
   H    H   0.4403  -0.2157  -0.3541   1.0000
   H    H   0.4745  -0.1004  -0.2822   1.0000
   H    H  -0.4219  -0.1741  -0.4150   1.0000
   H    H  -0.4153   0.0231  -0.4062   1.0000
   H    H  -0.4894   0.0489  -0.3513   1.0000
   H    H   0.3812  -0.0746  -0.3988   1.0000
   H    H  -0.4692  -0.2244  -0.2192   1.0000
   H    H  -0.4886  -0.3083  -0.3267   1.0000
   H    H  -0.3973  -0.2467  -0.2875   1.0000
   H    H   0.4704   0.1493  -0.4176   1.0000
   H    H  -0.4244  -0.0248   0.4042   1.0000
   H    H   0.2606  -0.1766  -0.4631   1.0000
   H    H   0.2887  -0.1163   0.4419   1.0000
   H    H   0.4690   0.2280   0.4491   1.0000
   H    H  -0.4276   0.0543   0.2724   1.0000
   H    H   0.2715  -0.2838   0.3351   1.0000
   H    H   0.2348  -0.3394   0.4309   1.0000
   H    H  -0.2858   0.1141  -0.2747   1.0000
   H    H  -0.2414   0.0826  -0.3818   1.0000
   H    H  -0.4215   0.3418   0.3511   1.0000
   H    H   0.4611   0.0608   0.1817   1.0000
   H    H  -0.2019  -0.0257  -0.3031   1.0000
   H    H  -0.2435   0.0088  -0.1976   1.0000
   H    H  -0.1666   0.0946  -0.2411   1.0000
   H    H  -0.4218   0.4218   0.2185   1.0000
   H    H   0.4605   0.1414   0.0495   1.0000
   H    H  -0.4805   0.3219   0.0677   1.0000
   H    H   0.0755  -0.3701   0.3282   1.0000
   H    H   0.4999  -0.3637   0.4967   1.0000
   H    H   0.4403  -0.3440   0.3540   1.0000
   H    H   0.4745  -0.4251   0.2822   1.0000
   H    H  -0.4219  -0.2478   0.4150   1.0000
   H    H  -0.4153  -0.4384   0.4062   1.0000
   H    H  -0.4894   0.4616   0.3513   1.0000
   H    H   0.3812   0.4557   0.3988   1.0000
   H    H  -0.4692  -0.2447   0.2192   1.0000
   H    H  -0.4886  -0.1804   0.3267   1.0000
   H    H  -0.3973  -0.1506   0.2875   1.0000
   H    H   0.4704   0.3211   0.4176   1.0000
   H    H  -0.4244  -0.3996  -0.4042   1.0000
   H    H   0.2605   0.4372   0.4631   1.0000
   H    H   0.2887   0.4050  -0.4419   1.0000
   H    H   0.4690   0.2410  -0.4491   1.0000
   H    H  -0.4276  -0.4819  -0.2724   1.0000
   H    H   0.2716  -0.4446  -0.3351   1.0000
   H    H   0.2347  -0.4259  -0.4309   1.0000
   H    H  -0.2853  -0.4004   0.2742   1.0000
   H    H  -0.2414  -0.3241   0.3819   1.0000
   H    H  -0.4215   0.2367  -0.3512   1.0000
   H    H   0.4611   0.4002  -0.1817   1.0000
   H    H  -0.2017  -0.1762   0.3032   1.0000
   H    H  -0.2433  -0.2525   0.1980   1.0000
   H    H  -0.1661  -0.2623   0.2407   1.0000
   H    H  -0.4220   0.1563  -0.2185   1.0000
   H    H   0.4605   0.3191  -0.0495   1.0000
   H    H  -0.4806   0.1976  -0.0677   1.0000
   H    H   0.0749   0.4455  -0.3284   1.0000
   H    H  -0.1073   0.4737  -0.0124   1.0000
   H    H  -0.1997   0.3110   0.0280   1.0000
   H    H  -0.1557   0.2487  -0.0530   1.0000
   H    H  -0.2068   0.3967  -0.1127   1.0000
   H    H  -0.0605   0.4017  -0.1627   1.0000
   H    H  -0.0283   0.3358  -0.1032   1.0000
   H    H  -0.0439   0.3592   0.0759   1.0000
   H    H  -0.3043   0.1822  -0.1067   1.0000
   H    H  -0.3161   0.2863  -0.0380   1.0000
   H    H  -0.3269   0.2622  -0.1604   1.0000
   H    H   0.0961   0.4063  -0.0614   1.0000
   H    H  -0.0153  -0.4050  -0.0887   1.0000
   H    H  -0.0402   0.4027   0.2460   1.0000
   H    H   0.0324  -0.4904   0.2298   1.0000
   H    H   0.2135  -0.4515  -0.0393   1.0000
   H    H   0.1017  -0.2623  -0.0644   1.0000
   H    H  -0.0457  -0.3922   0.3131   1.0000
   H    H  -0.1109   0.4989   0.3373   1.0000
   H    H  -0.1042   0.2881  -0.3600   1.0000
   H    H  -0.1057   0.4044  -0.3706   1.0000
   H    H   0.2895  -0.3245  -0.1522   1.0000
   H    H   0.1961  -0.1826   0.0807   1.0000
   H    H  -0.2406   0.3204  -0.4138   1.0000
   H    H  -0.2378   0.2069  -0.4056   1.0000
   H    H  -0.1886   0.2683  -0.4950   1.0000
   H    H   0.4063  -0.1805  -0.1306   1.0000
   H    H   0.3132  -0.0393   0.1024   1.0000
   H    H   0.4183  -0.0378  -0.0036   1.0000
   H    H  -0.0181  -0.4185  -0.4538   1.0000
   H    H  -0.1605  -0.1711  -0.0275   1.0000
   H    H  -0.2049  -0.0031   0.0703   1.0000
   H    H  -0.1526   0.0769  -0.0492   1.0000
   H    H  -0.1118   0.0678  -0.1610   1.0000
   H    H  -0.2124  -0.1245   0.1695   1.0000
   H    H  -0.2702  -0.2203   0.0858   1.0000
   H    H  -0.2995  -0.1276   0.1468   1.0000
   H    H  -0.2565  -0.0620  -0.0922   1.0000
   H    H  -0.2922  -0.1842  -0.0753   1.0000
   H    H  -0.3264  -0.0986  -0.0099   1.0000
   H    H  -0.1819  -0.2603  -0.2401   1.0000
   H    H  -0.1609  -0.2360  -0.1214   1.0000
   H    H  -0.0484  -0.2195  -0.2818   1.0000
   H    H  -0.0254  -0.1881  -0.1621   1.0000
   H    H  -0.1070  -0.3615  -0.1433   1.0000
   H    H  -0.1247  -0.3917  -0.2644   1.0000
   H    H  -0.0767   0.1911   0.0719   1.0000
   H    H   0.0226   0.0561  -0.1590   1.0000
   H    H   0.0461   0.2908   0.1422   1.0000
   H    H   0.1450   0.1549  -0.0890   1.0000
   H    H  -0.0232  -0.4400  -0.2285   1.0000
   H    H   0.0108  -0.3489  -0.2977   1.0000
   H    H   0.0284  -0.3184  -0.1767   1.0000
   H    H   0.0201  -0.0294   0.0416   1.0000
   H    H   0.1938   0.4007  -0.0098   1.0000
   H    H   0.2992   0.2980   0.2291   1.0000
   H    H   0.3159  -0.4935   0.0581   1.0000
   H    H   0.3685   0.4556   0.1780   1.0000
   H    H   0.0458  -0.0372   0.1756   1.0000
   N    N   0.4036  -0.1151  -0.4476   1.0000
   N    N   0.4036  -0.4813   0.4476   1.0000
   N    N  -0.0659   0.4104   0.0738   1.0000
   N    N  -0.1280  -0.0513  -0.0946   1.0000
   N    N   0.1043   0.0965   0.1342   1.0000
   N    N   0.1898   0.1386   0.2422   1.0000
   N    N   0.0922   0.0296   0.1857   1.0000
   N    N   0.1424   0.0520   0.2512   1.0000
