data_findsym-STRUC-11
# This file was generated by FINDSYM    
# Harold T. Stokes, Branton J. Campbell, Dorian M. Hatch
# Brigham Young University, Provo, Utah, USA
                                        
data_findsym-output                     
                                        
_symmetry_space_group_name_H-M 'P 1'    
_symmetry_Int_Tables_number 1           
                                        
_cell_length_a      14.13800            
_cell_length_b      24.61000            
_cell_length_c      16.51200            
_cell_angle_alpha  107.97200            
_cell_angle_beta   113.96500            
_cell_angle_gamma   76.57100            
                                        
loop_                                   
_space_group_symop_operation_xyz        
x,y,z                                   
                                        
loop_                                   
_atom_site_label                        
_atom_site_type_symbol                  
_atom_site_fract_x                      
_atom_site_fract_y                      
_atom_site_fract_z                      
_atom_site_occupancy                    
   C    C   0.0339   0.4343   0.0565   1.0000
   C    C   0.0600   0.3788   0.0901   1.0000
   C    C   0.0263   0.3251   0.0119   1.0000
   C    C   0.1078   0.4363   0.0095   1.0000
   C    C   0.0843   0.4905  -0.0231   1.0000
   C    C   0.0075   0.2782   0.0451   1.0000
   C    C   0.1104   0.2998  -0.0302   1.0000
   C    C  -0.0437  -0.4787   0.1444   1.0000
   C    C   0.1567  -0.4701   0.0142   1.0000
   C    C  -0.0103  -0.4983  -0.0931   1.0000
   C    C  -0.0232  -0.4269   0.2272   1.0000
   C    C   0.0426  -0.4103  -0.0883   1.0000
   C    C   0.1370  -0.4213  -0.0182   1.0000
   C    C  -0.0312  -0.4494  -0.1250   1.0000
   C    C  -0.1228  -0.4027   0.2482   1.0000
   C    C   0.0210  -0.3586  -0.1234   1.0000
   C    C   0.1356   0.2773  -0.1741   1.0000
   C    C   0.0899  -0.3476  -0.1567   1.0000
   C    C  -0.0693  -0.3196  -0.1243   1.0000
   C    C  -0.1105  -0.3457   0.3208   1.0000
   C    C   0.1374   0.2120  -0.2038   1.0000
   C    C   0.0685  -0.2993  -0.1906   1.0000
   C    C  -0.0900  -0.2711  -0.1577   1.0000
   C    C  -0.0214  -0.2609  -0.1912   1.0000
   C    C  -0.0906   0.0622   0.0784   1.0000
   C    C  -0.1607   0.0924   0.1348   1.0000
   C    C  -0.2772   0.1016   0.0750   1.0000
   C    C  -0.1022  -0.0028   0.0382   1.0000
   C    C  -0.0336  -0.0332  -0.0163   1.0000
   C    C  -0.3368   0.1524   0.1235   1.0000
   C    C  -0.3282   0.0473   0.0508   1.0000
   C    C   0.0743   0.1027   0.1250   1.0000
   C    C   0.0466  -0.0764   0.0121   1.0000
   C    C  -0.0506  -0.0194  -0.0980   1.0000
   C    C   0.1891   0.1041   0.1887   1.0000
   C    C   0.0899  -0.0924  -0.1216   1.0000
   C    C   0.1071  -0.1060  -0.0399   1.0000
   C    C   0.0104  -0.0483  -0.1496   1.0000
   C    C   0.2288   0.1575   0.1911   1.0000
   C    C   0.1538  -0.1237  -0.1774   1.0000
   C    C  -0.4200  -0.0239  -0.0797   1.0000
   C    C   0.1612  -0.1838  -0.2080   1.0000
   C    C   0.2079  -0.0937  -0.2012   1.0000
   C    C   0.3471   0.1557   0.2423   1.0000
   C    C   0.4677  -0.0054  -0.0843   1.0000
   C    C   0.2202  -0.2129  -0.2615   1.0000
   C    C   0.2679  -0.1230  -0.2540   1.0000
   C    C   0.2739  -0.1829  -0.2846   1.0000
   C    C   0.0567  -0.0696   0.4547   1.0000
   C    C   0.1386  -0.1235   0.4580   1.0000
   C    C   0.2402  -0.1138   0.4535   1.0000
   C    C   0.0863  -0.0231  -0.4540   1.0000
   C    C   0.0069   0.0297  -0.4555   1.0000
   C    C   0.2980  -0.1703   0.4152   1.0000
   C    C   0.3130  -0.0864  -0.4514   1.0000
   C    C  -0.1259  -0.0850   0.3530   1.0000
   C    C  -0.0500   0.0451  -0.3979   1.0000
   C    C  -0.0097   0.0651   0.4865   1.0000
   C    C  -0.2293  -0.1014   0.3427   1.0000
   C    C  -0.1366   0.1304  -0.4543   1.0000
   C    C  -0.1201   0.0949  -0.3964   1.0000
   C    C  -0.0806   0.1144   0.4867   1.0000
   C    C  -0.2972  -0.1185   0.2416   1.0000
   C    C  -0.2115   0.1832  -0.4533   1.0000
   C    C   0.4013  -0.0017  -0.3668   1.0000
   C    C  -0.2007   0.2260  -0.3713   1.0000
   C    C  -0.2930   0.1910   0.4682   1.0000
   C    C  -0.4072  -0.1263   0.2287   1.0000
   C    C  -0.4866  -0.0248  -0.3602   1.0000
   C    C  -0.2701   0.2761  -0.3708   1.0000
   C    C  -0.3640   0.2421   0.4691   1.0000
   C    C  -0.3514   0.2844  -0.4514   1.0000
   C    C   0.4121  -0.3847   0.4438   1.0000
   C    C   0.3962  -0.3537   0.3699   1.0000
   C    C   0.3296  -0.4751   0.3321   1.0000
   C    C   0.2671  -0.4205   0.4572   1.0000
   C    C   0.4601  -0.3023   0.4075   1.0000
   C    C   0.2799  -0.3334   0.3272   1.0000
   C    C   0.2721  -0.3710  -0.4582   1.0000
   C    C  -0.4761  -0.4164   0.4812   1.0000
   C    C   0.4189   0.4772   0.3551   1.0000
   C    C   0.3106  -0.3945  -0.3724   1.0000
   C    C   0.3252  -0.3458  -0.2866   1.0000
   C    C   0.4927   0.4623   0.3136   1.0000
   C    C   0.4287   0.4481   0.4201   1.0000
   C    C  -0.4153   0.3904   0.3998   1.0000
   C    C  -0.4249   0.4193   0.3356   1.0000
   C    C  -0.4893   0.4053   0.4418   1.0000
   C    C   0.3699  -0.3679  -0.2003   1.0000
   C    C  -0.3288   0.3433   0.4215   1.0000
   C    C  -0.2300   0.3559   0.4906   1.0000
   C    C  -0.3433   0.2880   0.3734   1.0000
   C    C  -0.1494   0.3098  -0.4920   1.0000
   C    C  -0.2618   0.2426   0.3919   1.0000
   C    C  -0.2101   0.4160  -0.4563   1.0000
   C    C  -0.1654   0.2544   0.4596   1.0000
   O    O   0.0708   0.3020  -0.1187   1.0000
   O    O   0.2009   0.2805   0.0083   1.0000
   O    O  -0.1331  -0.4863   0.0885   1.0000
   O    O  -0.1867  -0.3336   0.3570   1.0000
   O    O  -0.0452  -0.3135   0.3453   1.0000
   O    O  -0.3632   0.0262  -0.0406   1.0000
   O    O  -0.3368   0.0251   0.1041   1.0000
   O    O   0.0346   0.1301   0.0649   1.0000
   O    O   0.3755   0.2096   0.2662   1.0000
   O    O   0.4099   0.1143   0.2600   1.0000
   O    O   0.3294  -0.0345  -0.4497   1.0000
   O    O   0.3521  -0.1074  -0.3842   1.0000
   O    O  -0.1167  -0.0704   0.2916   1.0000
   O    O  -0.4556  -0.1569   0.1417   1.0000
   O    O  -0.4499  -0.1087   0.2842   1.0000
   O    O  -0.4681  -0.4369  -0.4481   1.0000
   O    O   0.2042  -0.4557   0.4290   1.0000
   O    O  -0.4028  -0.4220   0.4571   1.0000
   H    H  -0.0481   0.4368   0.0068   1.0000
   H    H   0.0212   0.3843   0.1381   1.0000
   H    H   0.1445   0.3717   0.1304   1.0000
   H    H  -0.0466   0.3376  -0.0422   1.0000
   H    H   0.1016   0.3991  -0.0491   1.0000
   H    H   0.1896   0.4316   0.0569   1.0000
   H    H   0.1149   0.4917   0.1807   1.0000
   H    H   0.0777   0.2641   0.0985   1.0000
   H    H  -0.0545   0.2941   0.0733   1.0000
   H    H  -0.0164   0.2402  -0.0109   1.0000
   H    H   0.2308  -0.4779   0.0699   1.0000
   H    H  -0.0683   0.4711  -0.1232   1.0000
   H    H   0.0404  -0.4390   0.2870   1.0000
   H    H   0.0043  -0.3940   0.2122   1.0000
   H    H   0.1949  -0.3910   0.0112   1.0000
   H    H  -0.1050  -0.4411  -0.1800   1.0000
   H    H  -0.1895  -0.3954   0.1863   1.0000
   H    H  -0.1460  -0.4335   0.2708   1.0000
   H    H   0.2144   0.2905  -0.1352   1.0000
   H    H   0.0952   0.2981  -0.2314   1.0000
   H    H   0.1605  -0.3779  -0.1564   1.0000
   H    H  -0.1231  -0.3277  -0.0978   1.0000
   H    H   0.0579   0.1999  -0.2381   1.0000
   H    H   0.1762   0.1925  -0.1453   1.0000
   H    H   0.1785   0.1928  -0.2515   1.0000
   H    H   0.1223  -0.2914  -0.2170   1.0000
   H    H  -0.1603  -0.2409  -0.1578   1.0000
   H    H  -0.0381  -0.2228  -0.2179   1.0000
   H    H  -0.1811  -0.2972   0.4021   1.0000
   H    H  -0.1119   0.0832   0.0213   1.0000
   H    H  -0.1349   0.1342   0.1763   1.0000
   H    H  -0.1502   0.0678   0.1847   1.0000
   H    H  -0.2844   0.1102   0.0105   1.0000
   H    H  -0.1837  -0.0081  -0.0059   1.0000
   H    H  -0.0853  -0.0235   0.0940   1.0000
   H    H   0.0531   0.0465   0.1863   1.0000
   H    H  -0.3325   0.1456   0.1878   1.0000
   H    H  -0.3047   0.1923   0.1396   1.0000
   H    H  -0.4195   0.1585   0.0806   1.0000
   H    H   0.0616  -0.0872   0.0764   1.0000
   H    H  -0.1133   0.0145  -0.1212   1.0000
   H    H   0.1986   0.1032   0.2578   1.0000
   H    H   0.2351   0.0645   0.1642   1.0000
   H    H   0.1692  -0.1401  -0.0172   1.0000
   H    H  -0.0036  -0.0374  -0.2135   1.0000
   H    H   0.2109   0.1615   0.1216   1.0000
   H    H   0.1894   0.1972   0.2229   1.0000
   H    H  -0.3791  -0.0564  -0.0394   1.0000
   H    H  -0.4136  -0.0394  -0.1476   1.0000
   H    H   0.1191  -0.2076  -0.1898   1.0000
   H    H   0.2031  -0.0466  -0.1770   1.0000
   H    H   0.4305   0.0291  -0.1206   1.0000
   H    H   0.4639   0.0109  -0.0159   1.0000
   H    H   0.4212  -0.0413  -0.1201   1.0000
   H    H   0.2249  -0.2594  -0.2853   1.0000
   H    H   0.3098  -0.0994  -0.2720   1.0000
   H    H   0.3206  -0.2060  -0.3268   1.0000
   H    H   0.4502   0.2092   0.2974   1.0000
   H    H   0.0500  -0.0510   0.3987   1.0000
   H    H   0.1051  -0.1589   0.4007   1.0000
   H    H   0.1562  -0.1385  -0.4800   1.0000
   H    H   0.2214  -0.0839   0.4093   1.0000
   H    H   0.1622  -0.0102  -0.4389   1.0000
   H    H   0.0973  -0.0418  -0.3975   1.0000
   H    H  -0.0545  -0.0981   0.4846   1.0000
   H    H   0.3189  -0.2013   0.4570   1.0000
   H    H   0.2496  -0.1903   0.3458   1.0000
   H    H   0.3702  -0.1630   0.4123   1.0000
   H    H  -0.0386   0.0174  -0.3527   1.0000
   H    H   0.0342   0.0536   0.4407   1.0000
   H    H  -0.2150  -0.1367   0.3757   1.0000
   H    H  -0.2692  -0.0646   0.3796   1.0000
   H    H  -0.1636   0.1067  -0.3504   1.0000
   H    H  -0.0928   0.1419   0.4413   1.0000
   H    H  -0.3040  -0.0856   0.2061   1.0000
   H    H  -0.2620  -0.1582   0.2059   1.0000
   H    H   0.3863  -0.0035  -0.3071   1.0000
   H    H   0.3780   0.0421  -0.3777   1.0000
   H    H  -0.1372   0.2193  -0.3081   1.0000
   H    H  -0.3014   0.1589   0.4031   1.0000
   H    H  -0.4752  -0.0255  -0.4224   1.0000
   H    H  -0.4662  -0.0689  -0.3513   1.0000
   H    H  -0.4314   0.0018  -0.3025   1.0000
   H    H  -0.2615   0.3092  -0.3072   1.0000
   H    H  -0.4260   0.2487   0.4049   1.0000
   H    H  -0.4055   0.3241  -0.4510   1.0000
   H    H   0.4741  -0.1615   0.1318   1.0000
   H    H   0.4021  -0.3518  -0.4963   1.0000
   H    H   0.4227  -0.3850   0.3173   1.0000
   H    H   0.3295  -0.4597   0.2760   1.0000
   H    H   0.2548  -0.4922   0.3079   1.0000
   H    H  -0.4568  -0.3150   0.4391   1.0000
   H    H   0.4349  -0.2679   0.4583   1.0000
   H    H   0.4490  -0.2831   0.3516   1.0000
   H    H   0.2333  -0.3694   0.2962   1.0000
   H    H   0.2490  -0.3024   0.3777   1.0000
   H    H   0.2653  -0.3120   0.2737   1.0000
   H    H   0.1954  -0.3448  -0.4667   1.0000
   H    H   0.3242  -0.3419  -0.4504   1.0000
   H    H   0.2552  -0.4220  -0.3786   1.0000
   H    H   0.3851  -0.4228  -0.3668   1.0000
   H    H   0.3764  -0.3163  -0.2826   1.0000
   H    H   0.2498  -0.3192  -0.2906   1.0000
   H    H   0.4852   0.4849   0.2630   1.0000
   H    H   0.3709   0.4593   0.4526   1.0000
   H    H  -0.3671   0.4080   0.3026   1.0000
   H    H  -0.4818   0.3828   0.4924   1.0000
   H    H   0.3803  -0.3328  -0.1389   1.0000
   H    H   0.3188  -0.3958  -0.2011   1.0000
   H    H   0.4464  -0.3937  -0.1934   1.0000
   H    H  -0.4132  -0.4693  -0.4389   1.0000
   H    H  -0.4204   0.2774   0.3226   1.0000
   H    H  -0.0733   0.3195  -0.4393   1.0000
   H    H  -0.2765   0.1983   0.3549   1.0000
   H    H  -0.1033   0.2189   0.4742   1.0000
   H    H  -0.2579  -0.4526  -0.3856   1.0000
   N    N   0.0411   0.4843   0.1348   1.0000
   N    N   0.0187   0.0698   0.1373   1.0000
   N    N  -0.0452  -0.0869   0.4335   1.0000
   N    N   0.3347  -0.4254   0.4135   1.0000
   N    N  -0.2816   0.4624  -0.4589   1.0000
   N    N  -0.1138   0.4303  -0.3967   1.0000
   N    N  -0.2250  -0.4964  -0.4004   1.0000
   N    N  -0.1241   0.4861  -0.3614   1.0000
