data_findsym-STRUC-12
# This file was generated by FINDSYM    
# Harold T. Stokes, Branton J. Campbell, Dorian M. Hatch
# Brigham Young University, Provo, Utah, USA
                                        
data_findsym-output                     
                                        
_symmetry_space_group_name_H-M 'P 1'    
_symmetry_Int_Tables_number 1           
                                        
_cell_length_a      14.07300            
_cell_length_b      14.07300            
_cell_length_c      25.49700            
_cell_angle_alpha   96.84400            
_cell_angle_beta    83.15600            
_cell_angle_gamma   85.41400            
                                        
loop_                                   
_space_group_symop_operation_xyz        
x,y,z                                   
                                        
loop_                                   
_atom_site_label                        
_atom_site_type_symbol                  
_atom_site_fract_x                      
_atom_site_fract_y                      
_atom_site_fract_z                      
_atom_site_occupancy                    
   C    C   0.3627   0.1583  -0.3217   1.0000
   C    C   0.2781   0.0951  -0.3191   1.0000
   C    C   0.2956   0.0038  -0.3604   1.0000
   C    C   0.4498   0.1136  -0.2981   1.0000
   C    C  -0.4674   0.1753  -0.3000   1.0000
   C    C   0.2011  -0.0329  -0.3745   1.0000
   C    C   0.3531  -0.0762  -0.3387   1.0000
   C    C   0.3210   0.3342  -0.3172   1.0000
   C    C  -0.4364   0.2162  -0.2526   1.0000
   C    C  -0.4200   0.1919  -0.3483   1.0000
   C    C   0.2907   0.4299  -0.2812   1.0000
   C    C  -0.3079   0.2837  -0.3034   1.0000
   C    C  -0.3578   0.2687  -0.2540   1.0000
   C    C  -0.3404   0.2463  -0.3501   1.0000
   C    C   0.2492  -0.4956  -0.3134   1.0000
   C    C  -0.2236   0.3398  -0.3050   1.0000
   C    C  -0.4975  -0.1790  -0.3583   1.0000
   C    C  -0.1448   0.3143  -0.2789   1.0000
   C    C  -0.2209   0.4196  -0.3333   1.0000
   C    C   0.2321  -0.3952  -0.2811   1.0000
   C    C   0.4688  -0.2748  -0.3794   1.0000
   C    C  -0.0652   0.3668  -0.2813   1.0000
   C    C  -0.1415   0.4723  -0.3353   1.0000
   C    C  -0.0633   0.4459  -0.3095   1.0000
   C    C   0.1582   0.3628   0.3218   1.0000
   C    C   0.0948   0.2785   0.3193   1.0000
   C    C   0.0039   0.2957   0.3604   1.0000
   C    C   0.1136   0.4498   0.2981   1.0000
   C    C   0.1748  -0.4670   0.2997   1.0000
   C    C  -0.0331   0.2010   0.3744   1.0000
   C    C  -0.0763   0.3531   0.3386   1.0000
   C    C   0.3342   0.3210   0.3171   1.0000
   C    C   0.2159  -0.4366   0.2528   1.0000
   C    C   0.1896  -0.4173   0.3487   1.0000
   C    C   0.4299   0.2907   0.2812   1.0000
   C    C   0.2836  -0.3078   0.3031   1.0000
   C    C   0.2689  -0.3576   0.2542   1.0000
   C    C   0.2436  -0.3392   0.3505   1.0000
   C    C  -0.4956   0.2491   0.3133   1.0000
   C    C   0.3398  -0.2236   0.3050   1.0000
   C    C  -0.1789  -0.4975   0.3584   1.0000
   C    C   0.3143  -0.1448   0.2789   1.0000
   C    C   0.4196  -0.2210   0.3332   1.0000
   C    C  -0.3950   0.2321   0.2810   1.0000
   C    C  -0.2748   0.4687   0.3793   1.0000
   C    C   0.3668  -0.0652   0.2814   1.0000
   C    C   0.4723  -0.1416   0.3352   1.0000
   C    C   0.4459  -0.0634   0.3094   1.0000
   C    C  -0.1801  -0.2271  -0.0345   1.0000
   C    C  -0.2381  -0.2687  -0.0780   1.0000
   C    C  -0.3478  -0.2533  -0.0611   1.0000
   C    C  -0.1858  -0.1158  -0.0289   1.0000
   C    C  -0.1288  -0.0737   0.0131   1.0000
   C    C  -0.4007  -0.3289  -0.0915   1.0000
   C    C  -0.3872  -0.1536  -0.0714   1.0000
   C    C  -0.0375  -0.3299  -0.0183   1.0000
   C    C  -0.0495  -0.0238  -0.0006   1.0000
   C    C  -0.1558  -0.0823   0.0670   1.0000
   C    C   0.0698  -0.3623  -0.0352   1.0000
   C    C  -0.0266   0.0101   0.0920   1.0000
   C    C   0.0006   0.0184   0.0382   1.0000
   C    C  -0.1053  -0.0415   0.1059   1.0000
   C    C   0.0968  -0.4559  -0.0133   1.0000
   C    C   0.0264   0.0548   0.1336   1.0000
   C    C  -0.4726  -0.0053  -0.0254   1.0000
   C    C   0.0376   0.1536   0.1383   1.0000
   C    C   0.0659  -0.0009   0.1693   1.0000
   C    C   0.2057  -0.4824  -0.0221   1.0000
   C    C   0.4269  -0.0125  -0.0412   1.0000
   C    C   0.0866   0.1954   0.1778   1.0000
   C    C   0.1153   0.0412   0.2086   1.0000
   C    C   0.1259   0.1392   0.2129   1.0000
   C    C  -0.1644  -0.0235  -0.4157   1.0000
   C    C  -0.1945   0.0054  -0.3553   1.0000
   C    C  -0.1416   0.1476  -0.4384   1.0000
   C    C  -0.2470   0.0473  -0.4867   1.0000
   C    C  -0.1915  -0.0808  -0.3233   1.0000
   C    C  -0.2929   0.0569  -0.3466   1.0000
   C    C  -0.2927  -0.0472  -0.4981   1.0000
   C    C  -0.0574  -0.0630  -0.4313   1.0000
   C    C  -0.0369   0.1375  -0.4629   1.0000
   C    C  -0.2530  -0.0981   0.4458   1.0000
   C    C  -0.2913  -0.1963   0.4357   1.0000
   C    C   0.0360   0.1495  -0.4309   1.0000
   C    C  -0.0123   0.1145   0.4817   1.0000
   C    C   0.1562   0.1166   0.4917   1.0000
   C    C   0.1318   0.1392  -0.4532   1.0000
   C    C   0.0834   0.1042   0.4595   1.0000
   C    C  -0.2475  -0.2504   0.3818   1.0000
   C    C   0.2584   0.1075   0.4674   1.0000
   C    C   0.3167   0.0191   0.4627   1.0000
   C    C   0.2980   0.1872   0.4494   1.0000
   C    C   0.4138   0.0141   0.4405   1.0000
   C    C   0.3944   0.1810   0.4275   1.0000
   C    C   0.2767  -0.0690   0.4808   1.0000
   C    C   0.4518   0.0944   0.4231   1.0000
   O    O   0.4379  -0.1001  -0.3698   1.0000
   O    O   0.3285  -0.1144  -0.2988   1.0000
   O    O   0.3372   0.3304  -0.3662   1.0000
   O    O   0.1709  -0.3373  -0.3040   1.0000
   O    O   0.2663  -0.3670  -0.2414   1.0000
   O    O  -0.1001   0.4378   0.3698   1.0000
   O    O  -0.1143   0.3286   0.2989   1.0000
   O    O   0.3303   0.3375   0.3662   1.0000
   O    O  -0.3374   0.1709   0.3040   1.0000
   O    O  -0.3670   0.2663   0.2414   1.0000
   O    O  -0.4259  -0.1014  -0.0249   1.0000
   O    O  -0.3846  -0.1228  -0.1146   1.0000
   O    O  -0.0833  -0.3584   0.0204   1.0000
   O    O   0.2257   0.4226  -0.0165   1.0000
   O    O   0.2684  -0.4308  -0.0319   1.0000
   O    O  -0.0414  -0.0956  -0.4843   1.0000
   O    O  -0.2634   0.1148   0.4878   1.0000
   O    O   0.0060  -0.0694  -0.4026   1.0000
   H    H   0.3858   0.1673  -0.3641   1.0000
   H    H   0.2130   0.1375  -0.3258   1.0000
   H    H   0.2618   0.0752  -0.2784   1.0000
   H    H   0.3381   0.0202  -0.3972   1.0000
   H    H   0.4743   0.0424  -0.3202   1.0000
   H    H   0.4268   0.1009  -0.2567   1.0000
   H    H   0.3177   0.2586  -0.2517   1.0000
   H    H   0.1565  -0.0507  -0.3394   1.0000
   H    H   0.1591   0.0209  -0.3918   1.0000
   H    H   0.2142  -0.0976  -0.4038   1.0000
   H    H  -0.4754   0.2057  -0.2141   1.0000
   H    H  -0.4404   0.1579  -0.3860   1.0000
   H    H   0.2381   0.4199  -0.2472   1.0000
   H    H   0.3536   0.4546  -0.2637   1.0000
   H    H  -0.3339   0.3002  -0.2170   1.0000
   H    H  -0.3007   0.2547  -0.3889   1.0000
   H    H   0.2976  -0.4915  -0.3502   1.0000
   H    H   0.1814   0.4843  -0.3271   1.0000
   H    H  -0.4933  -0.1721  -0.3151   1.0000
   H    H  -0.4285  -0.1649  -0.3799   1.0000
   H    H  -0.1463   0.2520  -0.2568   1.0000
   H    H  -0.2826   0.4402  -0.3535   1.0000
   H    H   0.4603  -0.2778  -0.4217   1.0000
   H    H   0.3991  -0.2859  -0.3579   1.0000
   H    H  -0.4798  -0.3350  -0.3750   1.0000
   H    H  -0.0039   0.3459  -0.2612   1.0000
   H    H  -0.1403  -0.4656  -0.3573   1.0000
   H    H  -0.0007   0.4871  -0.3114   1.0000
   H    H   0.1607  -0.2729  -0.2847   1.0000
   H    H   0.1673   0.3858   0.3641   1.0000
   H    H   0.1374   0.2130   0.3259   1.0000
   H    H   0.0749   0.2622   0.2788   1.0000
   H    H   0.0202   0.3381   0.3972   1.0000
   H    H   0.0425   0.4743   0.3202   1.0000
   H    H   0.1009   0.4268   0.2567   1.0000
   H    H   0.2587   0.3177   0.2517   1.0000
   H    H  -0.0507   0.1565   0.3394   1.0000
   H    H   0.0208   0.1595   0.3916   1.0000
   H    H  -0.0978   0.2143   0.4039   1.0000
   H    H   0.2057  -0.4754   0.2141   1.0000
   H    H   0.1579  -0.4405   0.3861   1.0000
   H    H   0.4199   0.2381   0.2472   1.0000
   H    H   0.4546   0.3537   0.2637   1.0000
   H    H   0.3002  -0.3339   0.2170   1.0000
   H    H   0.2547  -0.3006   0.3889   1.0000
   H    H  -0.4914   0.2977   0.3501   1.0000
   H    H   0.4843   0.1814   0.3271   1.0000
   H    H  -0.1721  -0.4933   0.3151   1.0000
   H    H  -0.1649  -0.4287   0.3798   1.0000
   H    H   0.2520  -0.1463   0.2568   1.0000
   H    H   0.4402  -0.2825   0.3535   1.0000
   H    H  -0.2778   0.4603   0.4217   1.0000
   H    H  -0.2860   0.3991   0.3579   1.0000
   H    H  -0.3350  -0.4799   0.3750   1.0000
   H    H   0.3459  -0.0039   0.2612   1.0000
   H    H  -0.4656  -0.1404   0.3572   1.0000
   H    H   0.4870  -0.0007   0.3114   1.0000
   H    H  -0.2729   0.1607   0.2847   1.0000
   H    H  -0.2088  -0.2493   0.0044   1.0000
   H    H  -0.2167  -0.3458  -0.0880   1.0000
   H    H  -0.2192  -0.2378  -0.1155   1.0000
   H    H  -0.3634  -0.2576  -0.0178   1.0000
   H    H  -0.2611  -0.0859  -0.0188   1.0000
   H    H  -0.1611  -0.0929  -0.0678   1.0000
   H    H  -0.0399  -0.2434  -0.0790   1.0000
   H    H  -0.3879  -0.3272  -0.1346   1.0000
   H    H  -0.3766  -0.4012  -0.0838   1.0000
   H    H  -0.4785  -0.3174  -0.0792   1.0000
   H    H  -0.0269  -0.0174  -0.0428   1.0000
   H    H  -0.2179  -0.1214   0.0785   1.0000
   H    H   0.0868  -0.3715  -0.0789   1.0000
   H    H   0.1123  -0.3050  -0.0205   1.0000
   H    H   0.0622   0.0580   0.0269   1.0000
   H    H  -0.1270  -0.0482   0.1479   1.0000
   H    H   0.0718  -0.4501   0.0298   1.0000
   H    H   0.0608   0.4843  -0.0314   1.0000
   H    H  -0.4274   0.0336  -0.0523   1.0000
   H    H  -0.4734   0.0267   0.0162   1.0000
   H    H   0.0068   0.1976   0.1106   1.0000
   H    H   0.0579  -0.0782   0.1656   1.0000
   H    H   0.3851  -0.0558  -0.0156   1.0000
   H    H   0.4298  -0.0464  -0.0824   1.0000
   H    H   0.3873   0.0586  -0.0378   1.0000
   H    H   0.0943   0.2727   0.1814   1.0000
   H    H   0.1460  -0.0028   0.2361   1.0000
   H    H   0.1640   0.1722   0.2440   1.0000
   H    H   0.2943   0.4049  -0.0211   1.0000
   H    H  -0.2053  -0.0839  -0.4289   1.0000
   H    H  -0.1429   0.0544  -0.3410   1.0000
   H    H  -0.1485   0.1717  -0.3953   1.0000
   H    H  -0.1822   0.2030  -0.4561   1.0000
   H    H  -0.1211  -0.1211  -0.3290   1.0000
   H    H  -0.2444  -0.1311  -0.3340   1.0000
   H    H  -0.2100  -0.0557  -0.2803   1.0000
   H    H  -0.2966   0.1208  -0.3665   1.0000
   H    H  -0.3495   0.0136  -0.3609   1.0000
   H    H  -0.3181   0.0822  -0.3041   1.0000
   H    H  -0.3719  -0.0347  -0.4941   1.0000
   H    H  -0.2776  -0.0933  -0.4682   1.0000
   H    H  -0.2721  -0.0531   0.4152   1.0000
   H    H  -0.1736  -0.1065   0.4414   1.0000
   H    H  -0.2762  -0.2397   0.4678   1.0000
   H    H  -0.3706  -0.1876   0.4380   1.0000
   H    H   0.0169   0.1674  -0.3875   1.0000
   H    H  -0.0690   0.1057   0.4561   1.0000
   H    H   0.1887   0.1487  -0.4276   1.0000
   H    H   0.1024   0.0863   0.4162   1.0000
   H    H  -0.2747  -0.3207   0.3747   1.0000
   H    H  -0.2636  -0.2104   0.3490   1.0000
   H    H  -0.1686  -0.2623   0.3790   1.0000
   H    H   0.0260  -0.0961  -0.4988   1.0000
   H    H   0.2530   0.2552   0.4527   1.0000
   H    H   0.4584  -0.0541   0.4369   1.0000
   H    H   0.4239   0.2442   0.4137   1.0000
   H    H  -0.4726   0.0900   0.4059   1.0000
   H    H   0.1252  -0.1987  -0.4772   1.0000
   N    N   0.3297   0.2541  -0.2925   1.0000
   N    N   0.2542   0.3296   0.2925   1.0000
   N    N  -0.0792  -0.2679  -0.0477   1.0000
   N    N  -0.1870   0.0549  -0.4478   1.0000
   N    N   0.1846  -0.0776   0.4973   1.0000
   N    N   0.3323  -0.1527   0.4820   1.0000
   N    N   0.1877  -0.1672  -0.4919   1.0000
   N    N   0.2751  -0.2148   0.4993   1.0000
