data_findsym-STRUC-13
# This file was generated by FINDSYM    
# Harold T. Stokes, Branton J. Campbell, Dorian M. Hatch
# Brigham Young University, Provo, Utah, USA
                                        
data_findsym-output                     
                                        
_symmetry_space_group_name_H-M 'P 1'    
_symmetry_Int_Tables_number 1           
                                        
_cell_length_a      19.32300            
_cell_length_b      17.96400            
_cell_length_c      15.40000            
_cell_angle_alpha   79.98700            
_cell_angle_beta    70.45100            
_cell_angle_gamma   84.26100            
                                        
loop_                                   
_space_group_symop_operation_xyz        
x,y,z                                   
                                        
loop_                                   
_atom_site_label                        
_atom_site_type_symbol                  
_atom_site_fract_x                      
_atom_site_fract_y                      
_atom_site_fract_z                      
_atom_site_occupancy                    
   C    C  -0.3810   0.3619  -0.2621   1.0000
   C    C  -0.3349   0.4328  -0.2904   1.0000
   C    C  -0.3789  -0.4936  -0.3110   1.0000
   C    C  -0.4362   0.3577  -0.1619   1.0000
   C    C  -0.4812   0.2884  -0.1325   1.0000
   C    C  -0.3287  -0.4324  -0.3775   1.0000
   C    C  -0.4215  -0.4625  -0.2205   1.0000
   C    C  -0.3218   0.2486  -0.3347   1.0000
   C    C  -0.4750   0.2331  -0.0593   1.0000
   C    C   0.4684   0.2789  -0.1772   1.0000
   C    C  -0.2707   0.1777  -0.3307   1.0000
   C    C   0.4312   0.1617  -0.0743   1.0000
   C    C   0.4814   0.1708  -0.0297   1.0000
   C    C   0.4260   0.2161  -0.1487   1.0000
   C    C  -0.2440   0.1492  -0.4248   1.0000
   C    C   0.3844   0.0956  -0.0433   1.0000
   C    C   0.4546  -0.4303  -0.1268   1.0000
   C    C   0.3389   0.0795   0.0497   1.0000
   C    C   0.3846   0.0479  -0.1066   1.0000
   C    C  -0.2023   0.0725  -0.4204   1.0000
   C    C   0.4520  -0.3441  -0.1481   1.0000
   C    C   0.2943   0.0178   0.0785   1.0000
   C    C   0.3404  -0.0141  -0.0776   1.0000
   C    C   0.2951  -0.0291   0.0148   1.0000
   C    C   0.3810  -0.3619   0.2621   1.0000
   C    C   0.3349  -0.4328   0.2904   1.0000
   C    C   0.3789   0.4936   0.3110   1.0000
   C    C   0.4362  -0.3577   0.1619   1.0000
   C    C   0.4812  -0.2883   0.1325   1.0000
   C    C   0.3287   0.4324   0.3775   1.0000
   C    C   0.4215   0.4625   0.2205   1.0000
   C    C   0.3218  -0.2486   0.3348   1.0000
   C    C   0.4750  -0.2331   0.0593   1.0000
   C    C  -0.4685  -0.2791   0.1773   1.0000
   C    C   0.2707  -0.1777   0.3307   1.0000
   C    C  -0.4310  -0.1617   0.0743   1.0000
   C    C  -0.4814  -0.1708   0.0297   1.0000
   C    C  -0.4255  -0.2165   0.1491   1.0000
   C    C   0.2439  -0.1492   0.4249   1.0000
   C    C  -0.3844  -0.0956   0.0433   1.0000
   C    C  -0.4546   0.4303   0.1268   1.0000
   C    C  -0.3389  -0.0796  -0.0497   1.0000
   C    C  -0.3846  -0.0479   0.1066   1.0000
   C    C   0.2024  -0.0722   0.4198   1.0000
   C    C  -0.4520   0.3441   0.1481   1.0000
   C    C  -0.2943  -0.0178  -0.0785   1.0000
   C    C  -0.3404   0.0142   0.0776   1.0000
   C    C  -0.2951   0.0291  -0.0148   1.0000
   C    C  -0.0906  -0.0420   0.0444   1.0000
   C    C  -0.1621  -0.0799   0.1077   1.0000
   C    C  -0.1537  -0.1292   0.1966   1.0000
   C    C  -0.0737   0.0244   0.0852   1.0000
   C    C  -0.0045   0.0628   0.0239   1.0000
   C    C  -0.2098  -0.1915   0.2348   1.0000
   C    C  -0.1647  -0.0803   0.2723   1.0000
   C    C  -0.0571  -0.0456  -0.1252   1.0000
   C    C  -0.0069   0.1380  -0.0176   1.0000
   C    C   0.0642   0.0237   0.0091   1.0000
   C    C  -0.0674  -0.0083  -0.2180   1.0000
   C    C   0.1256   0.1354  -0.0855   1.0000
   C    C   0.0567   0.1744  -0.0707   1.0000
   C    C   0.1282   0.0592  -0.0451   1.0000
   C    C  -0.0422  -0.0637  -0.2887   1.0000
   C    C   0.1941   0.1734  -0.1420   1.0000
   C    C  -0.1009  -0.0440   0.3679   1.0000
   C    C   0.2114   0.2404  -0.1198   1.0000
   C    C   0.2431   0.1433  -0.2188   1.0000
   C    C  -0.0405  -0.0252  -0.3856   1.0000
   C    C  -0.1380  -0.0912   0.4624   1.0000
   C    C   0.2753   0.2760  -0.1724   1.0000
   C    C   0.3077   0.1790  -0.2722   1.0000
   C    C   0.3236   0.2454  -0.2495   1.0000
   C    C   0.0195  -0.4843   0.1658   1.0000
   C    C   0.0813  -0.4617   0.1979   1.0000
   C    C   0.0014  -0.3538   0.0734   1.0000
   C    C  -0.1046  -0.4157   0.1941   1.0000
   C    C   0.1221   0.4695   0.2373   1.0000
   C    C   0.0480  -0.4089   0.2710   1.0000
   C    C  -0.1386  -0.4823   0.2683   1.0000
   C    C   0.0477   0.4733   0.0798   1.0000
   C    C   0.0171  -0.3728  -0.0240   1.0000
   C    C  -0.1905   0.4770   0.2370   1.0000
   C    C  -0.2196   0.4065   0.3065   1.0000
   C    C   0.0887  -0.3742  -0.0858   1.0000
   C    C  -0.0408  -0.3901  -0.0524   1.0000
   C    C   0.0458  -0.4095  -0.2026   1.0000
   C    C   0.1033  -0.3925  -0.1744   1.0000
   C    C  -0.0264  -0.4083  -0.1408   1.0000
   C    C  -0.2670   0.3626   0.2731   1.0000
   C    C   0.0607  -0.4275  -0.2980   1.0000
   C    C   0.0805   0.4978  -0.3182   1.0000
   C    C   0.0557  -0.3697  -0.3694   1.0000
   C    C   0.0956   0.4834  -0.4100   1.0000
   C    C   0.0707  -0.3847  -0.4597   1.0000
   C    C   0.0856   0.4335  -0.2432   1.0000
   C    C   0.0908  -0.4582  -0.4799   1.0000
   O    O  -0.4941  -0.4617  -0.2067   1.0000
   O    O  -0.3953  -0.4416  -0.1665   1.0000
   O    O  -0.3533   0.2632  -0.3942   1.0000
   O    O  -0.1624   0.0595   0.4935   1.0000
   O    O  -0.2039   0.0270  -0.3502   1.0000
   O    O   0.4941   0.4617   0.2066   1.0000
   O    O   0.3953   0.4416   0.1665   1.0000
   O    O   0.3533  -0.2631   0.3941   1.0000
   O    O   0.1618  -0.0583  -0.4928   1.0000
   O    O   0.2038  -0.0272   0.3504   1.0000
   O    O  -0.1018  -0.0833   0.2944   1.0000
   O    O  -0.2200  -0.0428   0.3093   1.0000
   O    O  -0.0137  -0.1008  -0.1211   1.0000
   O    O  -0.0383  -0.0784  -0.4405   1.0000
   O    O  -0.0398   0.0420  -0.4156   1.0000
   O    O  -0.0111   0.4494   0.0638   1.0000
   O    O  -0.1433  -0.3603   0.1761   1.0000
   O    O   0.1109   0.4592   0.0328   1.0000
   H    H  -0.4121   0.3629  -0.3118   1.0000
   H    H  -0.2876   0.4257  -0.3523   1.0000
   H    H  -0.3109   0.4380  -0.2357   1.0000
   H    H  -0.4192   0.4940  -0.3431   1.0000
   H    H  -0.4735   0.4082  -0.1570   1.0000
   H    H  -0.4061   0.3597  -0.1125   1.0000
   H    H  -0.3055   0.2806  -0.2196   1.0000
   H    H  -0.2880  -0.4179  -0.3485   1.0000
   H    H  -0.2989  -0.4516  -0.4442   1.0000
   H    H  -0.3605  -0.3804  -0.3917   1.0000
   H    H  -0.4352   0.2393  -0.0242   1.0000
   H    H   0.4629   0.3220  -0.2352   1.0000
   H    H  -0.2238   0.1898  -0.3108   1.0000
   H    H  -0.3009   0.1341  -0.2751   1.0000
   H    H   0.4865   0.1282   0.0283   1.0000
   H    H   0.3867   0.2094  -0.1835   1.0000
   H    H  -0.2903   0.1437  -0.4496   1.0000
   H    H  -0.2084   0.1898  -0.4795   1.0000
   H    H   0.4708  -0.4515  -0.0643   1.0000
   H    H   0.4028  -0.4547  -0.1202   1.0000
   H    H   0.3383   0.1166   0.0996   1.0000
   H    H   0.4203   0.0598  -0.1792   1.0000
   H    H   0.4396  -0.3246  -0.2131   1.0000
   H    H  -0.4953  -0.3215  -0.1561   1.0000
   H    H   0.4097  -0.3192  -0.0923   1.0000
   H    H   0.2588   0.0061   0.1509   1.0000
   H    H   0.3411  -0.0510  -0.1274   1.0000
   H    H   0.2600  -0.0777   0.0375   1.0000
   H    H  -0.1363   0.0098   0.4946   1.0000
   H    H   0.4120  -0.3629   0.3118   1.0000
   H    H   0.2876  -0.4257   0.3524   1.0000
   H    H   0.3109  -0.4380   0.2356   1.0000
   H    H   0.4192  -0.4940   0.3431   1.0000
   H    H   0.4735  -0.4082   0.1570   1.0000
   H    H   0.4062  -0.3597   0.1125   1.0000
   H    H   0.3055  -0.2806   0.2196   1.0000
   H    H   0.2880   0.4179   0.3485   1.0000
   H    H   0.2989   0.4516   0.4442   1.0000
   H    H   0.3605   0.3804   0.3917   1.0000
   H    H   0.4352  -0.2393   0.0242   1.0000
   H    H  -0.4629  -0.3219   0.2352   1.0000
   H    H   0.2238  -0.1898   0.3108   1.0000
   H    H   0.3008  -0.1341   0.2751   1.0000
   H    H  -0.4865  -0.1282  -0.0283   1.0000
   H    H  -0.3861  -0.2097   0.1842   1.0000
   H    H   0.2903  -0.1437   0.4496   1.0000
   H    H   0.2084  -0.1898   0.4795   1.0000
   H    H  -0.4708   0.4515   0.0643   1.0000
   H    H  -0.4028   0.4547   0.1202   1.0000
   H    H  -0.3383  -0.1166  -0.0996   1.0000
   H    H  -0.4203  -0.0598   0.1792   1.0000
   H    H  -0.4396   0.3246   0.2131   1.0000
   H    H   0.4953   0.3215   0.1561   1.0000
   H    H  -0.4097   0.3192   0.0923   1.0000
   H    H  -0.2588  -0.0061  -0.1509   1.0000
   H    H  -0.3411   0.0510   0.1274   1.0000
   H    H  -0.2600   0.0778  -0.0375   1.0000
   H    H   0.1360  -0.0092  -0.4945   1.0000
   H    H  -0.0439  -0.0850   0.0359   1.0000
   H    H  -0.1796  -0.1152   0.0684   1.0000
   H    H  -0.2075  -0.0367   0.1266   1.0000
   H    H  -0.0975  -0.1561   0.1804   1.0000
   H    H  -0.0683   0.0036   0.1540   1.0000
   H    H  -0.1210   0.0659   0.0973   1.0000
   H    H  -0.1323   0.0319  -0.0531   1.0000
   H    H  -0.2664  -0.1677   0.2525   1.0000
   H    H  -0.2024  -0.2293   0.1838   1.0000
   H    H  -0.2033  -0.2263   0.2980   1.0000
   H    H  -0.0604   0.1693  -0.0076   1.0000
   H    H   0.0672  -0.0357   0.0412   1.0000
   H    H  -0.1251   0.0106  -0.2078   1.0000
   H    H  -0.0358   0.0432  -0.2439   1.0000
   H    H   0.0543   0.2332  -0.1025   1.0000
   H    H   0.1816   0.0284  -0.0559   1.0000
   H    H   0.0134  -0.0886  -0.2932   1.0000
   H    H  -0.0775  -0.1125  -0.2673   1.0000
   H    H  -0.1272   0.0130   0.3611   1.0000
   H    H  -0.0413  -0.0396   0.3538   1.0000
   H    H   0.1729   0.2645  -0.0596   1.0000
   H    H   0.2300   0.0912  -0.2371   1.0000
   H    H  -0.1129  -0.1484   0.4671   1.0000
   H    H  -0.1964  -0.0952   0.4751   1.0000
   H    H  -0.1327  -0.0667  -0.4794   1.0000
   H    H   0.2888   0.3276  -0.1542   1.0000
   H    H   0.3457   0.1549  -0.3319   1.0000
   H    H   0.3752   0.2730  -0.2904   1.0000
   H    H  -0.0361  -0.0552   0.4970   1.0000
   H    H  -0.0146   0.4749   0.2222   1.0000
   H    H   0.1215  -0.4312   0.1366   1.0000
   H    H   0.0517  -0.3369   0.0820   1.0000
   H    H  -0.0384  -0.3052   0.0841   1.0000
   H    H   0.1461   0.4303   0.1874   1.0000
   H    H   0.0857   0.4377   0.3013   1.0000
   H    H   0.1673   0.4885   0.2558   1.0000
   H    H   0.0216  -0.3578   0.2434   1.0000
   H    H   0.0062  -0.4365   0.3335   1.0000
   H    H   0.0902  -0.3908   0.2945   1.0000
   H    H  -0.1685  -0.4634   0.3362   1.0000
   H    H  -0.0949   0.4786   0.2805   1.0000
   H    H  -0.2367  -0.4843   0.2286   1.0000
   H    H  -0.1610   0.4612   0.1672   1.0000
   H    H  -0.1733   0.3694   0.3181   1.0000
   H    H  -0.2517   0.4226   0.3753   1.0000
   H    H   0.1340  -0.3607  -0.0637   1.0000
   H    H  -0.0973  -0.3886  -0.0047   1.0000
   H    H   0.1599  -0.3936  -0.2224   1.0000
   H    H  -0.0715  -0.4217  -0.1628   1.0000
   H    H  -0.2877   0.3121   0.3227   1.0000
   H    H  -0.3148   0.3974   0.2634   1.0000
   H    H  -0.2359   0.3441   0.2056   1.0000
   H    H   0.0006   0.4417  -0.0009   1.0000
   H    H   0.0399  -0.3120  -0.3537   1.0000
   H    H   0.1109   0.4257  -0.4251   1.0000
   H    H   0.0668  -0.3388   0.4851   1.0000
   H    H   0.1028  -0.4698   0.4491   1.0000
   H    H   0.0710   0.3495  -0.0453   1.0000
   N    N  -0.3309   0.2942  -0.2696   1.0000
   N    N   0.3309  -0.2941   0.2696   1.0000
   N    N  -0.0974  -0.0146  -0.0484   1.0000
   N    N  -0.0300  -0.4193   0.1474   1.0000
   N    N   0.0656   0.4371  -0.1524   1.0000
   N    N   0.1114   0.3624  -0.2612   1.0000
   N    N   0.0803   0.3674  -0.1180   1.0000
   N    N   0.1077   0.3214  -0.1819   1.0000
