data_findsym-STRUC-1
# This file was generated by FINDSYM    
# Harold T. Stokes, Branton J. Campbell, Dorian M. Hatch
# Brigham Young University, Provo, Utah, USA
                                        
data_findsym-output                     
                                        
_symmetry_space_group_name_H-M 'P 1'    
_symmetry_Int_Tables_number 1           
                                        
_cell_length_a      16.65100            
_cell_length_b      16.65100            
_cell_length_c      18.43900            
_cell_angle_alpha   98.26200            
_cell_angle_beta    81.73800            
_cell_angle_gamma   94.22600            
                                        
loop_                                   
_space_group_symop_operation_xyz        
x,y,z                                   
                                        
loop_                                   
_atom_site_label                        
_atom_site_type_symbol                  
_atom_site_fract_x                      
_atom_site_fract_y                      
_atom_site_fract_z                      
_atom_site_occupancy                    
   C    C   0.1034   0.2813  -0.4450   1.0000
   C    C   0.0454   0.3501  -0.4147   1.0000
   C    C   0.0722   0.4052  -0.3467   1.0000
   C    C   0.1843   0.3133  -0.4866   1.0000
   C    C   0.2414   0.2468   0.4827   1.0000
   C    C  -0.0000   0.4466  -0.2980   1.0000
   C    C   0.1349   0.4712  -0.3713   1.0000
   C    C   0.0390   0.1439  -0.4781   1.0000
   C    C   0.2632   0.2274   0.4065   1.0000
   C    C   0.2752   0.2044  -0.4695   1.0000
   C    C   0.0007   0.0852   0.4627   1.0000
   C    C   0.3523   0.1264   0.4260   1.0000
   C    C   0.3184   0.1686   0.3782   1.0000
   C    C   0.3295   0.1449  -0.4973   1.0000
   C    C  -0.0489   0.0166   0.4980   1.0000
   C    C   0.4110   0.0638   0.3965   1.0000
   C    C   0.2732  -0.4783  -0.3600   1.0000
   C    C   0.4821   0.0823   0.3496   1.0000
   C    C   0.3970  -0.0154   0.4151   1.0000
   C    C  -0.0781  -0.0504   0.4400   1.0000
   C    C   0.2604  -0.4014  -0.3047   1.0000
   C    C  -0.4625   0.0237   0.3226   1.0000
   C    C   0.4524  -0.0744   0.3876   1.0000
   C    C  -0.4776  -0.0549   0.3413   1.0000
   C    C  -0.1901  -0.3078  -0.2885   1.0000
   C    C  -0.1026  -0.2747  -0.3128   1.0000
   C    C  -0.2213  -0.1977  -0.1763   1.0000
   C    C  -0.2406  -0.3426  -0.1602   1.0000
   C    C  -0.0675  -0.3124  -0.3915   1.0000
   C    C  -0.0481  -0.2905  -0.2569   1.0000
   C    C  -0.2389  -0.4330  -0.1917   1.0000
   C    C  -0.2545  -0.2832  -0.3331   1.0000
   C    C  -0.2948  -0.1603  -0.1953   1.0000
   C    C  -0.3257  -0.4725  -0.1869   1.0000
   C    C  -0.3257   0.4392  -0.2238   1.0000
   C    C  -0.2853  -0.0974  -0.2387   1.0000
   C    C  -0.3739  -0.1896  -0.1696   1.0000
   C    C  -0.4308  -0.0929  -0.2312   1.0000
   C    C  -0.3526  -0.0639  -0.2568   1.0000
   C    C  -0.4410  -0.1562  -0.1876   1.0000
   C    C  -0.4117   0.4010  -0.2240   1.0000
   C    C   0.4968  -0.0562  -0.2490   1.0000
   C    C   0.4638  -0.0836  -0.3154   1.0000
   C    C   0.4610   0.0070  -0.1997   1.0000
   C    C   0.3962  -0.0461  -0.3308   1.0000
   C    C   0.3942   0.0434  -0.2156   1.0000
   C    C   0.4996  -0.1524  -0.3698   1.0000
   C    C   0.3620   0.0170  -0.2813   1.0000
   C    C  -0.3077  -0.1902   0.2884   1.0000
   C    C  -0.2745  -0.1026   0.3129   1.0000
   C    C  -0.1977  -0.2212   0.1763   1.0000
   C    C  -0.3427  -0.2407   0.1601   1.0000
   C    C  -0.3123  -0.0675   0.3917   1.0000
   C    C  -0.2901  -0.0482   0.2565   1.0000
   C    C  -0.4330  -0.2389   0.1917   1.0000
   C    C  -0.2836  -0.2546   0.3328   1.0000
   C    C  -0.1603  -0.2949   0.1953   1.0000
   C    C  -0.4725  -0.3257   0.1869   1.0000
   C    C   0.4392  -0.3257   0.2237   1.0000
   C    C  -0.0974  -0.2853   0.2388   1.0000
   C    C  -0.1896  -0.3740   0.1696   1.0000
   C    C  -0.0929  -0.4308   0.2312   1.0000
   C    C  -0.0639  -0.3526   0.2568   1.0000
   C    C  -0.1562  -0.4410   0.1876   1.0000
   C    C   0.4010  -0.4118   0.2240   1.0000
   C    C  -0.0562   0.4968   0.2490   1.0000
   C    C  -0.0836   0.4638   0.3154   1.0000
   C    C   0.0070   0.4610   0.1997   1.0000
   C    C  -0.0461   0.3962   0.3308   1.0000
   C    C   0.0435   0.3942   0.2156   1.0000
   C    C  -0.1524   0.4996   0.3698   1.0000
   C    C   0.0169   0.3621   0.2813   1.0000
   C    C   0.0370   0.0503   0.0347   1.0000
   C    C  -0.0188   0.0605   0.1098   1.0000
   C    C   0.0146   0.1904  -0.0007   1.0000
   C    C  -0.0084   0.0663  -0.0872   1.0000
   C    C  -0.0069  -0.0036   0.1595   1.0000
   C    C  -0.1074   0.0567   0.0954   1.0000
   C    C  -0.0081  -0.0263  -0.1083   1.0000
   C    C   0.1288   0.0673   0.0410   1.0000
   C    C   0.1005   0.2287  -0.0092   1.0000
   C    C   0.0586  -0.0486  -0.1737   1.0000
   C    C   0.0642  -0.1404  -0.1912   1.0000
   C    C   0.1333   0.2707   0.0517   1.0000
   C    C   0.1487   0.2211  -0.0790   1.0000
   C    C   0.2598   0.2975  -0.0251   1.0000
   C    C   0.2122   0.3049   0.0442   1.0000
   C    C   0.2273   0.2552  -0.0866   1.0000
   C    C   0.1337  -0.1635  -0.2525   1.0000
   C    C   0.3437   0.3353  -0.0340   1.0000
   C    C   0.4108   0.2938  -0.0219   1.0000
   C    C   0.3567   0.4135  -0.0540   1.0000
   C    C   0.4892   0.3325  -0.0295   1.0000
   C    C   0.4343   0.4510  -0.0613   1.0000
   C    C   0.3999   0.2090  -0.0013   1.0000
   C    C  -0.4996   0.4103  -0.0486   1.0000
   O    O   0.2056   0.4626  -0.3465   1.0000
   O    O   0.1249  -0.4755  -0.4084   1.0000
   O    O   0.0488   0.1231  -0.4183   1.0000
   O    O  -0.1390  -0.0971   0.4711   1.0000
   O    O  -0.0509  -0.0627   0.3741   1.0000
   O    O  -0.3275  -0.3223  -0.3124   1.0000
   O    O  -0.2625  -0.3211  -0.0944   1.0000
   O    O  -0.2459  -0.2389  -0.3814   1.0000
   O    O  -0.3221  -0.3272   0.3125   1.0000
   O    O  -0.3211  -0.2625   0.0945   1.0000
   O    O  -0.2386  -0.2459   0.3816   1.0000
   O    O   0.1726   0.0485  -0.0270   1.0000
   O    O  -0.0272   0.1099  -0.1297   1.0000
   O    O   0.1616   0.0913   0.0960   1.0000
   H    H   0.1170   0.2514  -0.3981   1.0000
   H    H  -0.0156   0.3235  -0.3996   1.0000
   H    H   0.0391   0.3872  -0.4588   1.0000
   H    H   0.1008   0.3682  -0.3131   1.0000
   H    H   0.2148   0.3587  -0.4490   1.0000
   H    H   0.1713   0.3459   0.4686   1.0000
   H    H   0.0551   0.2359   0.4547   1.0000
   H    H  -0.0302   0.4844  -0.3288   1.0000
   H    H  -0.0452   0.4014  -0.2774   1.0000
   H    H   0.0196   0.4856  -0.2499   1.0000
   H    H   0.2366   0.2596   0.3684   1.0000
   H    H   0.2587   0.2189  -0.4094   1.0000
   H    H  -0.0376   0.1176   0.4338   1.0000
   H    H   0.0494   0.0610   0.4201   1.0000
   H    H   0.3355   0.1544   0.3184   1.0000
   H    H   0.3558   0.1122  -0.4596   1.0000
   H    H  -0.0132  -0.0114  -0.4672   1.0000
   H    H  -0.1020   0.0394  -0.4639   1.0000
   H    H   0.2791  -0.4660  -0.4178   1.0000
   H    H   0.3251   0.4885  -0.3518   1.0000
   H    H   0.4937   0.1441   0.3348   1.0000
   H    H   0.3413  -0.0305   0.4513   1.0000
   H    H   0.2504  -0.4158  -0.2477   1.0000
   H    H   0.2073  -0.3705  -0.3132   1.0000
   H    H   0.3132  -0.3585  -0.3097   1.0000
   H    H  -0.4071   0.0388   0.2867   1.0000
   H    H   0.4407  -0.1358   0.4024   1.0000
   H    H  -0.4336  -0.1011   0.3202   1.0000
   H    H  -0.1579  -0.1413   0.4352   1.0000
   H    H  -0.1915  -0.3748  -0.2997   1.0000
   H    H  -0.1046  -0.2089  -0.3129   1.0000
   H    H  -0.1647  -0.1643  -0.1965   1.0000
   H    H  -0.2243  -0.1930  -0.1158   1.0000
   H    H  -0.1051  -0.3031  -0.4329   1.0000
   H    H  -0.0606  -0.3781  -0.3949   1.0000
   H    H  -0.0064  -0.2846  -0.4072   1.0000
   H    H  -0.0696  -0.2610  -0.2010   1.0000
   H    H  -0.0451  -0.3556  -0.2536   1.0000
   H    H   0.0139  -0.2669  -0.2716   1.0000
   H    H  -0.2009  -0.4656  -0.1622   1.0000
   H    H  -0.2101  -0.4393  -0.2488   1.0000
   H    H  -0.3538  -0.4693  -0.1285   1.0000
   H    H  -0.3642  -0.4374  -0.2136   1.0000
   H    H  -0.2942   0.4358  -0.2810   1.0000
   H    H  -0.2899   0.4034  -0.1950   1.0000
   H    H  -0.2238  -0.0745  -0.2587   1.0000
   H    H  -0.3821  -0.2385  -0.1351   1.0000
   H    H  -0.3443  -0.0146  -0.2912   1.0000
   H    H   0.4976  -0.1792  -0.1676   1.0000
   H    H  -0.4118   0.3379  -0.2505   1.0000
   H    H  -0.4438   0.4014  -0.1679   1.0000
   H    H  -0.4482   0.4343  -0.2539   1.0000
   H    H  -0.3729  -0.2938  -0.3221   1.0000
   H    H   0.4863   0.0278  -0.1481   1.0000
   H    H   0.3710  -0.0674  -0.3822   1.0000
   H    H   0.3671   0.0931  -0.1765   1.0000
   H    H   0.3097   0.0459  -0.2937   1.0000
   H    H  -0.3910  -0.2951  -0.4324   1.0000
   H    H  -0.3748  -0.1917   0.2996   1.0000
   H    H  -0.2089  -0.1046   0.3129   1.0000
   H    H  -0.1643  -0.1647   0.1965   1.0000
   H    H  -0.1930  -0.2243   0.1158   1.0000
   H    H  -0.3031  -0.1051   0.4329   1.0000
   H    H  -0.3775  -0.0606   0.3952   1.0000
   H    H  -0.2845  -0.0064   0.4072   1.0000
   H    H  -0.2608  -0.0695   0.2009   1.0000
   H    H  -0.3549  -0.0453   0.2533   1.0000
   H    H  -0.2665   0.0142   0.2715   1.0000
   H    H  -0.4655  -0.2009   0.1622   1.0000
   H    H  -0.4394  -0.2101   0.2487   1.0000
   H    H  -0.4693  -0.3538   0.1285   1.0000
   H    H  -0.4375  -0.3642   0.2136   1.0000
   H    H   0.4358  -0.2942   0.2810   1.0000
   H    H   0.4034  -0.2899   0.1950   1.0000
   H    H  -0.0745  -0.2237   0.2588   1.0000
   H    H  -0.2385  -0.3821   0.1351   1.0000
   H    H  -0.0146  -0.3443   0.2912   1.0000
   H    H  -0.1792   0.4976   0.1676   1.0000
   H    H   0.3379  -0.4118   0.2505   1.0000
   H    H   0.4015  -0.4440   0.1675   1.0000
   H    H   0.4343  -0.4482   0.2539   1.0000
   H    H  -0.2938  -0.3730   0.3221   1.0000
   H    H   0.0278   0.4862   0.1481   1.0000
   H    H  -0.0674   0.3711   0.3822   1.0000
   H    H   0.0930   0.3673   0.1767   1.0000
   H    H   0.0459   0.3097   0.2937   1.0000
   H    H  -0.2951  -0.3910   0.4324   1.0000
   H    H   0.0316  -0.0142   0.0102   1.0000
   H    H  -0.0034   0.1207   0.1391   1.0000
   H    H  -0.0161   0.2067   0.0561   1.0000
   H    H  -0.0211   0.2143  -0.0379   1.0000
   H    H   0.0557  -0.0032   0.1705   1.0000
   H    H  -0.0243  -0.0656   0.1349   1.0000
   H    H  -0.0456   0.0082   0.2133   1.0000
   H    H  -0.1184   0.1041   0.0631   1.0000
   H    H  -0.1255  -0.0023   0.0649   1.0000
   H    H  -0.1487   0.0648   0.1472   1.0000
   H    H  -0.0680  -0.0518  -0.1222   1.0000
   H    H   0.0019  -0.0541  -0.0607   1.0000
   H    H   0.0463  -0.0233  -0.2230   1.0000
   H    H   0.1176  -0.0198  -0.1605   1.0000
   H    H   0.0726  -0.1665  -0.1409   1.0000
   H    H   0.0065  -0.1687  -0.2072   1.0000
   H    H   0.0958   0.2766   0.1061   1.0000
   H    H   0.1235   0.1887  -0.1273   1.0000
   H    H   0.2374   0.3378   0.0926   1.0000
   H    H   0.2647   0.2491  -0.1410   1.0000
   H    H   0.1379  -0.2295  -0.2650   1.0000
   H    H   0.1259  -0.1408  -0.3040   1.0000
   H    H   0.1926  -0.1378  -0.2371   1.0000
   H    H   0.2256   0.0776  -0.0311   1.0000
   H    H   0.3048   0.4453  -0.0638   1.0000
   H    H  -0.4593   0.3002  -0.0200   1.0000
   H    H   0.4435  -0.4878  -0.0768   1.0000
   H    H  -0.4386   0.4400  -0.0544   1.0000
   H    H   0.3132   0.0439   0.0280   1.0000
   N    N   0.0622   0.2200  -0.4949   1.0000
   N    N  -0.2173  -0.2858  -0.2083   1.0000
   N    N  -0.4425  -0.1988  -0.3590   1.0000
   N    N   0.4750  -0.1752  -0.4375   1.0000
   N    N  -0.4337  -0.2487  -0.4216   1.0000
   N    N  -0.4822  -0.2368  -0.4702   1.0000
   N    N  -0.2858  -0.2173   0.2084   1.0000
   N    N  -0.1988  -0.4425   0.3590   1.0000
   N    N  -0.1752   0.4750   0.4375   1.0000
   N    N  -0.2487  -0.4337   0.4216   1.0000
   N    N  -0.2368  -0.4823   0.4702   1.0000
   N    N   0.0138   0.0995  -0.0192   1.0000
   N    N   0.3315   0.1621   0.0002   1.0000
   N    N   0.4613   0.1701   0.0180   1.0000
   N    N   0.3540   0.0955   0.0209   1.0000
   N    N   0.4316   0.0977   0.0319   1.0000
