data_findsym-STRUC-2
# This file was generated by FINDSYM    
# Harold T. Stokes, Branton J. Campbell, Dorian M. Hatch
# Brigham Young University, Provo, Utah, USA
                                        
data_findsym-output                     
                                        
_symmetry_space_group_name_H-M 'P 1'    
_symmetry_Int_Tables_number 1           
                                        
_cell_length_a      17.20100            
_cell_length_b      20.26500            
_cell_length_c      16.16300            
_cell_angle_alpha   90.79300            
_cell_angle_beta   114.99600            
_cell_angle_gamma  100.27400            
                                        
loop_                                   
_space_group_symop_operation_xyz        
x,y,z                                   
                                        
loop_                                   
_atom_site_label                        
_atom_site_type_symbol                  
_atom_site_fract_x                      
_atom_site_fract_y                      
_atom_site_fract_z                      
_atom_site_occupancy                    
   C    C  -0.0328   0.4960  -0.1263   1.0000
   C    C  -0.0192   0.4773  -0.2114   1.0000
   C    C   0.0735  -0.4923  -0.2018   1.0000
   C    C   0.0153   0.4570  -0.0443   1.0000
   C    C   0.0019   0.4741   0.0391   1.0000
   C    C   0.0746  -0.4840  -0.2955   1.0000
   C    C   0.1376   0.4625  -0.1501   1.0000
   C    C  -0.1727  -0.4691  -0.1557   1.0000
   C    C  -0.0423   0.4253   0.0729   1.0000
   C    C   0.0357  -0.4609   0.0857   1.0000
   C    C  -0.2701  -0.4921  -0.1775   1.0000
   C    C  -0.0176  -0.4949   0.1985   1.0000
   C    C  -0.0515   0.4402   0.1519   1.0000
   C    C   0.0257  -0.4454   0.1639   1.0000
   C    C  -0.3187  -0.4349  -0.2143   1.0000
   C    C  -0.0270  -0.4787   0.2827   1.0000
   C    C   0.2715   0.4646  -0.0140   1.0000
   C    C   0.0036   0.4837   0.3580   1.0000
   C    C  -0.0663  -0.4248   0.2889   1.0000
   C    C  -0.4126  -0.4519  -0.2241   1.0000
   C    C   0.3364   0.4681  -0.0527   1.0000
   C    C  -0.0045   0.4996   0.4375   1.0000
   C    C  -0.0750  -0.4094   0.3679   1.0000
   C    C  -0.0442  -0.4474   0.4424   1.0000
   C    C  -0.4680   0.2498   0.3360   1.0000
   C    C   0.4609   0.2384   0.3721   1.0000
   C    C   0.4726   0.1398   0.2276   1.0000
   C    C  -0.3731   0.1665   0.3424   1.0000
   C    C   0.4592   0.3025   0.4236   1.0000
   C    C   0.4762   0.1814   0.4348   1.0000
   C    C  -0.2955   0.2133   0.4197   1.0000
   C    C  -0.4848   0.2979   0.2589   1.0000
   C    C   0.4550   0.1661   0.1351   1.0000
   C    C  -0.2251   0.2422   0.3875   1.0000
   C    C  -0.1508   0.2934   0.4612   1.0000
   C    C   0.3753   0.1842   0.0820   1.0000
   C    C  -0.4801   0.1733   0.1024   1.0000
   C    C   0.4239   0.2160  -0.0343   1.0000
   C    C   0.3597   0.2091  -0.0019   1.0000
   C    C  -0.4958   0.1979   0.0186   1.0000
   C    C  -0.0838   0.3258   0.4277   1.0000
   C    C   0.4069   0.2412  -0.1253   1.0000
   C    C   0.4227   0.3111  -0.1344   1.0000
   C    C   0.3750   0.1956  -0.2034   1.0000
   C    C   0.4042   0.3329  -0.2220   1.0000
   C    C   0.3563   0.2177  -0.2890   1.0000
   C    C   0.4597   0.3629  -0.0522   1.0000
   C    C   0.3708   0.2863  -0.2985   1.0000
   C    C   0.4680  -0.2499  -0.3360   1.0000
   C    C  -0.4609  -0.2383  -0.3722   1.0000
   C    C  -0.4727  -0.1398  -0.2276   1.0000
   C    C   0.3731  -0.1665  -0.3424   1.0000
   C    C  -0.4591  -0.3025  -0.4236   1.0000
   C    C  -0.4762  -0.1814  -0.4348   1.0000
   C    C   0.2955  -0.2133  -0.4198   1.0000
   C    C   0.4853  -0.2970  -0.2587   1.0000
   C    C  -0.4550  -0.1661  -0.1351   1.0000
   C    C   0.2251  -0.2421  -0.3875   1.0000
   C    C   0.1509  -0.2934  -0.4611   1.0000
   C    C  -0.3754  -0.1842  -0.0820   1.0000
   C    C   0.4802  -0.1733  -0.1024   1.0000
   C    C  -0.4239  -0.2160   0.0344   1.0000
   C    C  -0.3596  -0.2090   0.0020   1.0000
   C    C   0.4958  -0.1980  -0.0186   1.0000
   C    C   0.0839  -0.3256  -0.4276   1.0000
   C    C  -0.4069  -0.2412   0.1253   1.0000
   C    C  -0.4228  -0.3111   0.1343   1.0000
   C    C  -0.3740  -0.1952   0.2031   1.0000
   C    C  -0.4042  -0.3329   0.2220   1.0000
   C    C  -0.3559  -0.2174   0.2892   1.0000
   C    C  -0.4596  -0.3627   0.0520   1.0000
   C    C  -0.3709  -0.2863   0.2984   1.0000
   C    C   0.1272   0.0318  -0.3104   1.0000
   C    C   0.2265   0.0362  -0.2531   1.0000
   C    C   0.1417   0.1404  -0.3882   1.0000
   C    C   0.0484   0.1247  -0.3062   1.0000
   C    C   0.2486  -0.0302  -0.2121   1.0000
   C    C   0.2605   0.0932  -0.1764   1.0000
   C    C   0.0073   0.0823  -0.2513   1.0000
   C    C   0.0865  -0.0168  -0.4000   1.0000
   C    C   0.0962   0.1143  -0.4892   1.0000
   C    C  -0.0923   0.0601  -0.3082   1.0000
   C    C  -0.1331   0.0130  -0.2577   1.0000
   C    C   0.1422   0.0900   0.4678   1.0000
   C    C   0.0063   0.1135   0.4595   1.0000
   C    C   0.0113   0.0646   0.3251   1.0000
   C    C   0.1003   0.0652   0.3757   1.0000
   C    C  -0.0355   0.0889   0.3677   1.0000
   C    C  -0.2308  -0.0131  -0.3159   1.0000
   C    C  -0.0337   0.0395   0.2260   1.0000
   C    C  -0.0698  -0.0298   0.1967   1.0000
   C    C  -0.0398   0.0849   0.1604   1.0000
   C    C  -0.1103  -0.0517   0.1022   1.0000
   C    C  -0.0800   0.0627   0.0673   1.0000
   C    C  -0.0659  -0.0806   0.2649   1.0000
   C    C  -0.1150  -0.0057   0.0384   1.0000
   O    O   0.1999   0.4968  -0.0719   1.0000
   O    O   0.1335   0.4038  -0.1746   1.0000
   O    O  -0.1375  -0.4086  -0.1424   1.0000
   O    O  -0.4616  -0.4147  -0.2816   1.0000
   O    O  -0.4429  -0.4948  -0.1868   1.0000
   O    O  -0.4144   0.3096   0.2392   1.0000
   O    O  -0.3642   0.1130   0.3138   1.0000
   O    O   0.4522   0.3245   0.2210   1.0000
   O    O   0.4139  -0.3101  -0.2393   1.0000
   O    O   0.3643  -0.1130  -0.3138   1.0000
   O    O  -0.4520  -0.3207  -0.2186   1.0000
   O    O  -0.0024  -0.0221  -0.4398   1.0000
   O    O   0.0314   0.1804  -0.3266   1.0000
   O    O   0.1226  -0.0486  -0.4325   1.0000
   H    H  -0.0078  -0.4488  -0.1055   1.0000
   H    H  -0.0675   0.4949  -0.2716   1.0000
   H    H  -0.0332   0.4217  -0.2264   1.0000
   H    H   0.0970  -0.4422  -0.1615   1.0000
   H    H   0.0857   0.4683  -0.0261   1.0000
   H    H  -0.0066   0.4022  -0.0655   1.0000
   H    H  -0.1572   0.4316  -0.1606   1.0000
   H    H   0.0524   0.4675  -0.3377   1.0000
   H    H   0.0318  -0.4503  -0.3333   1.0000
   H    H   0.1407  -0.4624  -0.2879   1.0000
   H    H  -0.0699   0.3743   0.0366   1.0000
   H    H   0.0706  -0.4219   0.0600   1.0000
   H    H  -0.2999   0.4627  -0.2272   1.0000
   H    H  -0.2753   0.4925  -0.1148   1.0000
   H    H  -0.0857   0.4013   0.1781   1.0000
   H    H   0.0525  -0.3946   0.2000   1.0000
   H    H  -0.2846  -0.3876  -0.1691   1.0000
   H    H  -0.3203  -0.4232  -0.2812   1.0000
   H    H   0.2441   0.4123  -0.0076   1.0000
   H    H   0.2972   0.4954   0.0524   1.0000
   H    H   0.0345   0.4416   0.3538   1.0000
   H    H  -0.0908  -0.3954   0.2300   1.0000
   H    H   0.3607  -0.4800  -0.0630   1.0000
   H    H   0.3105   0.4382  -0.1196   1.0000
   H    H   0.3933   0.4498  -0.0075   1.0000
   H    H   0.0200   0.4702   0.4960   1.0000
   H    H  -0.1057  -0.3674   0.3721   1.0000
   H    H  -0.0502  -0.4346  -0.4948   1.0000
   H    H   0.4793  -0.4200  -0.2851   1.0000
   H    H  -0.4056   0.2753   0.3928   1.0000
   H    H   0.3970   0.2233   0.3125   1.0000
   H    H   0.4134   0.1331   0.2398   1.0000
   H    H   0.4895   0.0898   0.2282   1.0000
   H    H   0.4491   0.3443   0.3813   1.0000
   H    H  -0.4798   0.3192   0.4866   1.0000
   H    H   0.4054   0.2923   0.4448   1.0000
   H    H   0.4737   0.1344   0.3986   1.0000
   H    H  -0.4596   0.1937   0.4952   1.0000
   H    H   0.4265   0.1712   0.4607   1.0000
   H    H  -0.2668   0.1867   0.4815   1.0000
   H    H  -0.3186   0.2540   0.4411   1.0000
   H    H  -0.1987   0.2010   0.3697   1.0000
   H    H  -0.2552   0.2660   0.3235   1.0000
   H    H  -0.1778   0.3329   0.4820   1.0000
   H    H  -0.1184   0.2688  -0.4761   1.0000
   H    H   0.3247   0.1786   0.1075   1.0000
   H    H  -0.4176   0.1588   0.1432   1.0000
   H    H   0.2967   0.2233  -0.0431   1.0000
   H    H  -0.4452   0.2035  -0.0067   1.0000
   H    H  -0.0308   0.3626   0.4803   1.0000
   H    H  -0.0539   0.2880   0.4089   1.0000
   H    H  -0.1138   0.3523   0.3666   1.0000
   H    H  -0.4298   0.3231   0.1773   1.0000
   H    H   0.3632   0.1420  -0.1963   1.0000
   H    H   0.4166   0.3869  -0.2286   1.0000
   H    H   0.3301   0.1809  -0.3495   1.0000
   H    H   0.3564   0.3036  -0.3662   1.0000
   H    H  -0.4595   0.4188   0.1517   1.0000
   H    H   0.4055  -0.2753  -0.3929   1.0000
   H    H  -0.3970  -0.2233  -0.3125   1.0000
   H    H  -0.4134  -0.1331  -0.2398   1.0000
   H    H  -0.4895  -0.0898  -0.2282   1.0000
   H    H  -0.4491  -0.3443  -0.3815   1.0000
   H    H   0.4798  -0.3192  -0.4866   1.0000
   H    H  -0.4054  -0.2923  -0.4448   1.0000
   H    H  -0.4737  -0.1344  -0.3987   1.0000
   H    H   0.4596  -0.1937  -0.4952   1.0000
   H    H  -0.4265  -0.1712  -0.4607   1.0000
   H    H   0.2668  -0.1867  -0.4814   1.0000
   H    H   0.3186  -0.2540  -0.4411   1.0000
   H    H   0.1987  -0.2010  -0.3697   1.0000
   H    H   0.2552  -0.2660  -0.3235   1.0000
   H    H   0.1778  -0.3329  -0.4821   1.0000
   H    H   0.1184  -0.2688   0.4761   1.0000
   H    H  -0.3247  -0.1786  -0.1075   1.0000
   H    H   0.4176  -0.1588  -0.1432   1.0000
   H    H  -0.2967  -0.2232   0.0431   1.0000
   H    H   0.4452  -0.2035   0.0067   1.0000
   H    H   0.0315  -0.3621  -0.4798   1.0000
   H    H   0.0539  -0.2880  -0.4088   1.0000
   H    H   0.1138  -0.3522  -0.3666   1.0000
   H    H   0.4298  -0.3230  -0.1772   1.0000
   H    H  -0.3622  -0.1412   0.1959   1.0000
   H    H  -0.4165  -0.3869   0.2287   1.0000
   H    H  -0.3299  -0.1808   0.3495   1.0000
   H    H  -0.3564  -0.3036   0.3662   1.0000
   H    H   0.4595  -0.4189  -0.1515   1.0000
   H    H   0.0930   0.0101  -0.2694   1.0000
   H    H   0.2584   0.0471  -0.2993   1.0000
   H    H   0.2124   0.1417  -0.3604   1.0000
   H    H   0.1343   0.1927  -0.3801   1.0000
   H    H   0.2241  -0.0726  -0.2645   1.0000
   H    H   0.2216  -0.0431  -0.1622   1.0000
   H    H   0.3202  -0.0252  -0.1751   1.0000
   H    H   0.2502   0.1420  -0.2039   1.0000
   H    H   0.2305   0.0858  -0.1292   1.0000
   H    H   0.3314   0.0989  -0.1350   1.0000
   H    H   0.0218   0.1105  -0.1857   1.0000
   H    H   0.0371   0.0385  -0.2324   1.0000
   H    H  -0.1232   0.1046  -0.3240   1.0000
   H    H  -0.1063   0.0346  -0.3753   1.0000
   H    H  -0.0994  -0.0299  -0.2381   1.0000
   H    H  -0.1223   0.0395  -0.1922   1.0000
   H    H   0.2123   0.0905  -0.4923   1.0000
   H    H  -0.0302   0.1329   0.4924   1.0000
   H    H   0.1371   0.0461   0.3427   1.0000
   H    H  -0.1055   0.0883   0.3281   1.0000
   H    H  -0.2600  -0.0469  -0.2798   1.0000
   H    H  -0.2666   0.0283  -0.3343   1.0000
   H    H  -0.2434  -0.0412  -0.3805   1.0000
   H    H  -0.0280  -0.0357   0.4946   1.0000
   H    H  -0.0123   0.1386   0.1830   1.0000
   H    H  -0.1380  -0.1052   0.0801   1.0000
   H    H  -0.0840   0.0989   0.0168   1.0000
   H    H  -0.1463  -0.0231  -0.0348   1.0000
   H    H  -0.0320  -0.1349   0.4522   1.0000
   N    N  -0.1275   0.4816  -0.1511   1.0000
   N    N  -0.4530   0.1860   0.3048   1.0000
   N    N   0.4887   0.3487   0.0355   1.0000
   N    N   0.4688   0.4274  -0.0598   1.0000
   N    N  -0.4865   0.4094   0.0786   1.0000
   N    N  -0.4960   0.4545   0.0275   1.0000
   N    N   0.4530  -0.1860  -0.3048   1.0000
   N    N  -0.4887  -0.3487  -0.0353   1.0000
   N    N  -0.4669  -0.4279   0.0595   1.0000
   N    N   0.4870  -0.4094  -0.0783   1.0000
   N    N   0.4987  -0.4543  -0.0269   1.0000
   N    N   0.1040   0.0985  -0.3328   1.0000
   N    N  -0.0383  -0.0665   0.3547   1.0000
   N    N  -0.0920  -0.1484   0.2405   1.0000
   N    N  -0.0484  -0.1271   0.3821   1.0000
   N    N  -0.0807  -0.1777   0.3156   1.0000
