data_findsym-STRUC-3
# This file was generated by FINDSYM    
# Harold T. Stokes, Branton J. Campbell, Dorian M. Hatch
# Brigham Young University, Provo, Utah, USA
                                        
data_findsym-output                     
                                        
_symmetry_space_group_name_H-M 'P 1'    
_symmetry_Int_Tables_number 1           
                                        
_cell_length_a      15.74400            
_cell_length_b      12.76600            
_cell_length_c      25.80700            
_cell_angle_alpha  103.00800            
_cell_angle_beta    86.70100            
_cell_angle_gamma   83.23500            
                                        
loop_                                   
_space_group_symop_operation_xyz        
x,y,z                                   
                                        
loop_                                   
_atom_site_label                        
_atom_site_type_symbol                  
_atom_site_fract_x                      
_atom_site_fract_y                      
_atom_site_fract_z                      
_atom_site_occupancy                    
   C    C   0.4032  -0.4278   0.0672   1.0000
   C    C   0.3521  -0.3620   0.1196   1.0000
   C    C   0.4098  -0.3064   0.1608   1.0000
   C    C   0.4350  -0.3534   0.0324   1.0000
   C    C   0.4841  -0.4162  -0.0192   1.0000
   C    C   0.3683  -0.2857   0.2181   1.0000
   C    C   0.4272  -0.1976   0.1497   1.0000
   C    C   0.3633   0.3895   0.0298   1.0000
   C    C   0.4529  -0.4112  -0.0682   1.0000
   C    C  -0.4366  -0.4790  -0.0187   1.0000
   C    C   0.3029   0.3233  -0.0049   1.0000
   C    C  -0.4209   0.4721  -0.1154   1.0000
   C    C   0.4998  -0.4654  -0.1158   1.0000
   C    C  -0.3900   0.4656  -0.0660   1.0000
   C    C   0.3060   0.2108   0.0068   1.0000
   C    C  -0.3706   0.4144  -0.1658   1.0000
   C    C  -0.4559  -0.1029   0.1287   1.0000
   C    C  -0.3475   0.4704  -0.2041   1.0000
   C    C  -0.3448   0.3019  -0.1760   1.0000
   C    C   0.2574   0.1366  -0.0328   1.0000
   C    C  -0.4519  -0.0268   0.1799   1.0000
   C    C  -0.3000   0.4152  -0.2514   1.0000
   C    C  -0.2969   0.2476  -0.2233   1.0000
   C    C  -0.2738   0.3043  -0.2607   1.0000
   C    C   0.2002   0.3059   0.3412   1.0000
   C    C   0.2331   0.3274   0.2874   1.0000
   C    C   0.0428   0.2988   0.3195   1.0000
   C    C   0.0768   0.4215   0.4016   1.0000
   C    C   0.3320   0.3099   0.2781   1.0000
   C    C   0.1977   0.4431   0.2854   1.0000
   C    C   0.1403   0.4687   0.4401   1.0000
   C    C   0.2178   0.1853   0.3443   1.0000
   C    C   0.0292   0.1856   0.3248   1.0000
   C    C   0.1285   0.4338   0.4931   1.0000
   C    C   0.1970   0.4720  -0.4699   1.0000
   C    C   0.0507   0.0964   0.2817   1.0000
   C    C  -0.0043   0.1695   0.3738   1.0000
   C    C   0.0059  -0.0230   0.3353   1.0000
   C    C   0.0393  -0.0072   0.2868   1.0000
   C    C  -0.0157   0.0663   0.3789   1.0000
   C    C   0.1902   0.4315  -0.4188   1.0000
   C    C  -0.0081  -0.1333   0.3408   1.0000
   C    C   0.0584  -0.2047   0.3541   1.0000
   C    C  -0.0879  -0.1678   0.3321   1.0000
   C    C   0.0428  -0.3093   0.3578   1.0000
   C    C  -0.1026  -0.2712   0.3359   1.0000
   C    C   0.1454  -0.1706   0.3646   1.0000
   C    C  -0.0368  -0.3422   0.3485   1.0000
   C    C  -0.2002  -0.3059  -0.3413   1.0000
   C    C  -0.2329  -0.3273  -0.2875   1.0000
   C    C  -0.0428  -0.2987  -0.3195   1.0000
   C    C  -0.0768  -0.4215  -0.4016   1.0000
   C    C  -0.3321  -0.3099  -0.2781   1.0000
   C    C  -0.1968  -0.4417  -0.2854   1.0000
   C    C  -0.1402  -0.4687  -0.4401   1.0000
   C    C  -0.2186  -0.1852  -0.3447   1.0000
   C    C  -0.0293  -0.1856  -0.3248   1.0000
   C    C  -0.1285  -0.4338  -0.4931   1.0000
   C    C  -0.1969  -0.4720   0.4699   1.0000
   C    C  -0.0507  -0.0964  -0.2817   1.0000
   C    C   0.0043  -0.1695  -0.3738   1.0000
   C    C  -0.0060   0.0230  -0.3353   1.0000
   C    C  -0.0394   0.0072  -0.2868   1.0000
   C    C   0.0157  -0.0663  -0.3789   1.0000
   C    C  -0.1902  -0.4315   0.4188   1.0000
   C    C   0.0082   0.1333  -0.3408   1.0000
   C    C  -0.0585   0.2047  -0.3541   1.0000
   C    C   0.0882   0.1678  -0.3321   1.0000
   C    C  -0.0428   0.3093  -0.3578   1.0000
   C    C   0.1026   0.2713  -0.3359   1.0000
   C    C  -0.1450   0.1706  -0.3649   1.0000
   C    C   0.0368   0.3422  -0.3485   1.0000
   C    C   0.4218  -0.0799  -0.4314   1.0000
   C    C   0.3813  -0.1834  -0.4284   1.0000
   C    C  -0.4251  -0.1777  -0.4641   1.0000
   C    C  -0.4497  -0.0255  -0.3846   1.0000
   C    C   0.2821  -0.1640  -0.4230   1.0000
   C    C   0.4144  -0.2260  -0.3814   1.0000
   C    C   0.4928   0.0644  -0.3444   1.0000
   C    C   0.4059  -0.0392  -0.4829   1.0000
   C    C  -0.4093  -0.1458   0.4832   1.0000
   C    C  -0.4878   0.1768  -0.3505   1.0000
   C    C   0.4490   0.2672  -0.3142   1.0000
   C    C  -0.4353  -0.2062   0.4362   1.0000
   C    C  -0.3689  -0.0537   0.4814   1.0000
   C    C  -0.3816  -0.0853   0.3865   1.0000
   C    C  -0.4218  -0.1764   0.3882   1.0000
   C    C  -0.3553  -0.0239   0.4335   1.0000
   C    C   0.4637   0.3786  -0.3226   1.0000
   C    C  -0.3647  -0.0546   0.3350   1.0000
   C    C  -0.4283   0.0130   0.3154   1.0000
   C    C  -0.2873  -0.0920   0.3051   1.0000
   C    C  -0.4103   0.0410   0.2685   1.0000
   C    C  -0.2703  -0.0650   0.2559   1.0000
   C    C   0.4865   0.0564   0.3471   1.0000
   C    C  -0.3293   0.0002   0.2380   1.0000
   O    O  -0.4877  -0.2004   0.1381   1.0000
   O    O   0.3741  -0.1187   0.1505   1.0000
   O    O   0.4232   0.3449   0.0495   1.0000
   O    O   0.2401   0.0498  -0.0130   1.0000
   O    O   0.2365   0.1479  -0.0759   1.0000
   O    O   0.1943   0.1782   0.3954   1.0000
   O    O  -0.0017   0.4514   0.4117   1.0000
   O    O   0.2493   0.1068   0.3097   1.0000
   O    O  -0.1946  -0.1784  -0.3952   1.0000
   O    O   0.0017  -0.4513  -0.4117   1.0000
   O    O  -0.2509  -0.1070  -0.3101   1.0000
   O    O   0.4365   0.0575  -0.4788   1.0000
   O    O  -0.3701  -0.0394  -0.3809   1.0000
   O    O   0.3698  -0.0804   0.4785   1.0000
   H    H   0.4597  -0.4788   0.0770   1.0000
   H    H   0.3168  -0.4161   0.1372   1.0000
   H    H   0.3020  -0.3008   0.1111   1.0000
   H    H   0.4722  -0.3588   0.1575   1.0000
   H    H   0.4762  -0.2995   0.0550   1.0000
   H    H   0.3796  -0.2994   0.0243   1.0000
   H    H   0.2990  -0.4653   0.0197   1.0000
   H    H   0.3064  -0.2335   0.2235   1.0000
   H    H   0.3571  -0.3619   0.2282   1.0000
   H    H   0.4097  -0.2461   0.2471   1.0000
   H    H   0.3904  -0.3633  -0.0692   1.0000
   H    H  -0.4111  -0.4839   0.0195   1.0000
   H    H   0.2369   0.3658   0.0022   1.0000
   H    H   0.3225   0.3174  -0.0471   1.0000
   H    H   0.4749  -0.4601  -0.1541   1.0000
   H    H  -0.3280   0.4169  -0.0654   1.0000
   H    H   0.3729   0.1715   0.0046   1.0000
   H    H   0.2796   0.2154   0.0478   1.0000
   H    H  -0.4973  -0.0668   0.1027   1.0000
   H    H  -0.3923  -0.1366   0.1074   1.0000
   H    H  -0.3673  -0.4415  -0.1964   1.0000
   H    H  -0.3631   0.2574  -0.1463   1.0000
   H    H  -0.4133  -0.0654   0.2071   1.0000
   H    H   0.4863   0.0056   0.2029   1.0000
   H    H  -0.4198   0.0452   0.1764   1.0000
   H    H  -0.2822   0.4592  -0.2804   1.0000
   H    H  -0.2773   0.1600  -0.2310   1.0000
   H    H  -0.2362   0.2624  -0.2974   1.0000
   H    H   0.2105   0.0011  -0.0378   1.0000
   H    H   0.2354   0.3507   0.3730   1.0000
   H    H   0.2084   0.2694   0.2555   1.0000
   H    H   0.0639   0.2979   0.2779   1.0000
   H    H  -0.0185   0.3531   0.3297   1.0000
   H    H   0.3596   0.2288   0.2797   1.0000
   H    H   0.3614   0.3684   0.3076   1.0000
   H    H   0.3521   0.3222   0.2384   1.0000
   H    H   0.1274   0.4561   0.2894   1.0000
   H    H   0.2196  -0.4955   0.3174   1.0000
   H    H   0.2186   0.4608   0.2476   1.0000
   H    H   0.1329  -0.4416   0.4477   1.0000
   H    H   0.2051   0.4411   0.4216   1.0000
   H    H   0.0642   0.4661  -0.4868   1.0000
   H    H   0.1323   0.3445   0.4850   1.0000
   H    H   0.2619   0.4439  -0.4909   1.0000
   H    H   0.1911  -0.4383  -0.4600   1.0000
   H    H   0.0769   0.1088   0.2435   1.0000
   H    H  -0.0218   0.2390   0.4078   1.0000
   H    H   0.0566  -0.0769   0.2526   1.0000
   H    H  -0.0418   0.0540   0.4171   1.0000
   H    H   0.2393   0.4586  -0.3924   1.0000
   H    H   0.1276   0.4607  -0.3965   1.0000
   H    H   0.1980   0.3422  -0.4274   1.0000
   H    H   0.1826   0.1056   0.3962   1.0000
   H    H  -0.1393  -0.1123   0.3221   1.0000
   H    H   0.0944  -0.3641   0.3681   1.0000
   H    H  -0.1656  -0.2973   0.3288   1.0000
   H    H  -0.0482  -0.4233   0.3514   1.0000
   H    H   0.2859  -0.0197   0.3828   1.0000
   H    H  -0.2353  -0.3508  -0.3730   1.0000
   H    H  -0.2084  -0.2695  -0.2555   1.0000
   H    H  -0.0639  -0.2979  -0.2779   1.0000
   H    H   0.0185  -0.3531  -0.3297   1.0000
   H    H  -0.3596  -0.2286  -0.2797   1.0000
   H    H  -0.3614  -0.3683  -0.3076   1.0000
   H    H  -0.3521  -0.3221  -0.2385   1.0000
   H    H  -0.1273  -0.4560  -0.2894   1.0000
   H    H  -0.2190   0.4959  -0.3176   1.0000
   H    H  -0.2180  -0.4601  -0.2477   1.0000
   H    H  -0.1329   0.4416  -0.4477   1.0000
   H    H  -0.2051  -0.4411  -0.4216   1.0000
   H    H  -0.0642  -0.4661   0.4868   1.0000
   H    H  -0.1324  -0.3445  -0.4850   1.0000
   H    H  -0.2619  -0.4439   0.4909   1.0000
   H    H  -0.1911   0.4383   0.4600   1.0000
   H    H  -0.0769  -0.1088  -0.2435   1.0000
   H    H   0.0218  -0.2390  -0.4078   1.0000
   H    H  -0.0566   0.0769  -0.2526   1.0000
   H    H   0.0418  -0.0540  -0.4171   1.0000
   H    H  -0.2393  -0.4586   0.3925   1.0000
   H    H  -0.1276  -0.4607   0.3965   1.0000
   H    H  -0.1981  -0.3422   0.4274   1.0000
   H    H  -0.1828  -0.1056  -0.3963   1.0000
   H    H   0.1398   0.1123  -0.3221   1.0000
   H    H  -0.0944   0.3641  -0.3681   1.0000
   H    H   0.1656   0.2972  -0.3288   1.0000
   H    H   0.0482   0.4233  -0.3514   1.0000
   H    H  -0.2873   0.0186  -0.3827   1.0000
   H    H   0.3907  -0.0130  -0.3985   1.0000
   H    H   0.4021  -0.2441  -0.4658   1.0000
   H    H  -0.4519  -0.2550  -0.4704   1.0000
   H    H  -0.3638  -0.1902  -0.4465   1.0000
   H    H   0.2562  -0.1328  -0.4556   1.0000
   H    H   0.2563  -0.1067  -0.3852   1.0000
   H    H   0.2565  -0.2408  -0.4231   1.0000
   H    H   0.4845  -0.2451  -0.3856   1.0000
   H    H   0.3963  -0.1668  -0.3429   1.0000
   H    H   0.3880  -0.2999  -0.3784   1.0000
   H    H   0.4998   0.0572  -0.3029   1.0000
   H    H   0.4263   0.0555  -0.3511   1.0000
   H    H  -0.4215   0.1880  -0.3415   1.0000
   H    H  -0.4912   0.1816  -0.3926   1.0000
   H    H   0.3822   0.2533  -0.3217   1.0000
   H    H   0.4550   0.2652  -0.2720   1.0000
   H    H  -0.4668  -0.2780   0.4375   1.0000
   H    H  -0.3478  -0.0060  -0.4820   1.0000
   H    H  -0.4427  -0.2245   0.3514   1.0000
   H    H  -0.3239   0.0478   0.4323   1.0000
   H    H   0.4183   0.4433  -0.2967   1.0000
   H    H  -0.4712   0.3961  -0.3141   1.0000
   H    H   0.4559   0.3839  -0.3641   1.0000
   H    H   0.4499   0.0718   0.4863   1.0000
   H    H  -0.2383  -0.1427   0.3199   1.0000
   H    H  -0.4593   0.0900   0.2519   1.0000
   H    H  -0.2085  -0.0962   0.2328   1.0000
   H    H  -0.3190   0.0193   0.1986   1.0000
   H    H   0.3475   0.1087   0.4423   1.0000
   N    N   0.3480   0.4990   0.0372   1.0000
   N    N   0.1071   0.3453   0.3559   1.0000
   N    N   0.1663  -0.0714   0.3681   1.0000
   N    N   0.2136  -0.2401   0.3723   1.0000
   N    N   0.2477  -0.0845   0.3777   1.0000
   N    N   0.2786  -0.1844   0.3807   1.0000
   N    N  -0.1072  -0.3453  -0.3559   1.0000
   N    N  -0.1666   0.0718  -0.3681   1.0000
   N    N  -0.2130   0.2400  -0.3729   1.0000
   N    N  -0.2465   0.0853  -0.3777   1.0000
   N    N  -0.2782   0.1835  -0.3810   1.0000
   N    N  -0.4843  -0.0911  -0.4246   1.0000
   N    N   0.4650   0.0479   0.3965   1.0000
   N    N   0.4213   0.1114   0.3279   1.0000
   N    N   0.3856   0.0993   0.4056   1.0000
   N    N   0.3597   0.1394   0.3657   1.0000
