data_findsym-STRUC-4
# This file was generated by FINDSYM    
# Harold T. Stokes, Branton J. Campbell, Dorian M. Hatch
# Brigham Young University, Provo, Utah, USA
                                        
data_findsym-output                     
                                        
_symmetry_space_group_name_H-M 'P 1'    
_symmetry_Int_Tables_number 1           
                                        
_cell_length_a      13.36800            
_cell_length_b      13.36800            
_cell_length_c      32.00300            
_cell_angle_alpha   84.37900            
_cell_angle_beta    95.62100            
_cell_angle_gamma   62.87900            
                                        
loop_                                   
_space_group_symop_operation_xyz        
x,y,z                                   
                                        
loop_                                   
_atom_site_label                        
_atom_site_type_symbol                  
_atom_site_fract_x                      
_atom_site_fract_y                      
_atom_site_fract_z                      
_atom_site_occupancy                    
   C    C   0.3378   0.2485   0.4474   1.0000
   C    C   0.4057   0.2167   0.4102   1.0000
   C    C   0.4687   0.0871   0.4099   1.0000
   C    C   0.2284   0.2357   0.4404   1.0000
   C    C   0.1601   0.2676   0.4762   1.0000
   C    C  -0.4274   0.0529   0.3871   1.0000
   C    C   0.3883   0.0490   0.3875   1.0000
   C    C   0.3540   0.3938   0.4862   1.0000
   C    C   0.0509   0.3608   0.4693   1.0000
   C    C   0.2042   0.2028  -0.4831   1.0000
   C    C   0.3103  -0.4787   0.4879   1.0000
   C    C   0.0302   0.3222  -0.4577   1.0000
   C    C  -0.0139   0.3871  -0.4984   1.0000
   C    C   0.1406   0.2301  -0.4503   1.0000
   C    C   0.3961  -0.4617  -0.4825   1.0000
   C    C  -0.0380   0.3499  -0.4229   1.0000
   C    C   0.3070  -0.0779   0.4003   1.0000
   C    C  -0.1464   0.3561  -0.4276   1.0000
   C    C   0.0044   0.3700  -0.3847   1.0000
   C    C   0.3483  -0.3381  -0.4747   1.0000
   C    C   0.3766  -0.1750   0.3772   1.0000
   C    C  -0.2098   0.3809  -0.3946   1.0000
   C    C  -0.0588   0.3954  -0.3522   1.0000
   C    C  -0.1665   0.4007  -0.3569   1.0000
   C    C   0.3402  -0.1346  -0.3120   1.0000
   C    C   0.2738  -0.0904  -0.3580   1.0000
   C    C   0.2825  -0.2921  -0.2955   1.0000
   C    C   0.2510  -0.1506  -0.2475   1.0000
   C    C   0.3091  -0.0120  -0.3841   1.0000
   C    C   0.1461  -0.0279  -0.3562   1.0000
   C    C   0.2602  -0.0474  -0.2346   1.0000
   C    C   0.4692  -0.2168  -0.3092   1.0000
   C    C   0.3974  -0.3985  -0.2851   1.0000
   C    C   0.3452  -0.0825  -0.1932   1.0000
   C    C   0.3631   0.0174  -0.1819   1.0000
   C    C   0.4493  -0.4561  -0.3172   1.0000
   C    C   0.4536  -0.4393  -0.2427   1.0000
   C    C  -0.3895   0.4069  -0.2657   1.0000
   C    C  -0.4450   0.4474  -0.3078   1.0000
   C    C  -0.4411   0.4645  -0.2332   1.0000
   C    C   0.4536  -0.0191  -0.1430   1.0000
   C    C  -0.2775   0.3023  -0.2553   1.0000
   C    C  -0.1743   0.3073  -0.2567   1.0000
   C    C  -0.2736   0.1968  -0.2440   1.0000
   C    C  -0.0702   0.2060  -0.2475   1.0000
   C    C  -0.1701   0.0973  -0.2349   1.0000
   C    C  -0.1739   0.4192  -0.2678   1.0000
   C    C  -0.0683   0.1021  -0.2367   1.0000
   C    C  -0.1346   0.3402   0.3120   1.0000
   C    C  -0.0904   0.2739   0.3579   1.0000
   C    C  -0.2921   0.2825   0.2954   1.0000
   C    C  -0.1506   0.2510   0.2475   1.0000
   C    C  -0.0121   0.3086   0.3839   1.0000
   C    C  -0.0279   0.1461   0.3562   1.0000
   C    C  -0.0474   0.2602   0.2346   1.0000
   C    C  -0.2168   0.4692   0.3092   1.0000
   C    C  -0.3985   0.3974   0.2851   1.0000
   C    C  -0.0825   0.3453   0.1932   1.0000
   C    C   0.0175   0.3629   0.1819   1.0000
   C    C  -0.4561   0.4493   0.3172   1.0000
   C    C  -0.4394   0.4536   0.2426   1.0000
   C    C   0.4069  -0.3895   0.2658   1.0000
   C    C   0.4474  -0.4450   0.3078   1.0000
   C    C   0.4645  -0.4411   0.2332   1.0000
   C    C  -0.0180   0.4524   0.1429   1.0000
   C    C   0.3023  -0.2775   0.2553   1.0000
   C    C   0.3074  -0.1744   0.2568   1.0000
   C    C   0.1968  -0.2736   0.2440   1.0000
   C    C   0.2059  -0.0702   0.2475   1.0000
   C    C   0.0973  -0.1701   0.2349   1.0000
   C    C   0.4194  -0.1742   0.2681   1.0000
   C    C   0.1021  -0.0683   0.2367   1.0000
   C    C   0.4525   0.1640   0.0178   1.0000
   C    C  -0.4555   0.0775   0.0546   1.0000
   C    C   0.3564   0.0397   0.0021   1.0000
   C    C   0.4211   0.1196  -0.0556   1.0000
   C    C  -0.3949   0.1306   0.0810   1.0000
   C    C  -0.3685  -0.0222   0.0363   1.0000
   C    C   0.4750   0.1920  -0.0723   1.0000
   C    C   0.3482   0.2591   0.0325   1.0000
   C    C   0.2351   0.1146   0.0088   1.0000
   C    C   0.3859   0.2987  -0.1030   1.0000
   C    C   0.4358   0.3768  -0.1169   1.0000
   C    C   0.2047   0.1116   0.0492   1.0000
   C    C   0.1520   0.1893  -0.0258   1.0000
   C    C   0.0120   0.2549   0.0211   1.0000
   C    C   0.0941   0.1812   0.0554   1.0000
   C    C   0.0418   0.2585  -0.0196   1.0000
   C    C   0.3462   0.4865  -0.1450   1.0000
   C    C  -0.1071   0.3278   0.0273   1.0000
   C    C  -0.1408   0.4360   0.0397   1.0000
   C    C  -0.1874   0.2888   0.0213   1.0000
   C    C  -0.2540  -0.4985   0.0462   1.0000
   C    C  -0.2989   0.3543   0.0277   1.0000
   C    C  -0.0577   0.4827   0.0458   1.0000
   C    C  -0.3319   0.4606   0.0403   1.0000
   O    O   0.3753  -0.0253   0.4154   1.0000
   O    O   0.3408   0.0798   0.3504   1.0000
   O    O   0.4266   0.3197  -0.4852   1.0000
   O    O   0.4343  -0.3178  -0.4589   1.0000
   O    O   0.2489  -0.2655  -0.4807   1.0000
   O    O  -0.4789  -0.2409  -0.2680   1.0000
   O    O   0.2101  -0.1990  -0.2255   1.0000
   O    O  -0.4774  -0.2545  -0.3379   1.0000
   O    O  -0.2409  -0.4790   0.2680   1.0000
   O    O  -0.1990   0.2100   0.2255   1.0000
   O    O  -0.2545  -0.4774   0.3379   1.0000
   O    O   0.2788   0.3366  -0.0021   1.0000
   O    O   0.3851   0.0736  -0.0792   1.0000
   O    O   0.3275   0.2707   0.0686   1.0000
   H    H   0.3926   0.1925   0.4774   1.0000
   H    H   0.4679   0.2486   0.4121   1.0000
   H    H   0.3489   0.2612   0.3793   1.0000
   H    H   0.4974   0.0416   0.4432   1.0000
   H    H   0.2509   0.1472   0.4370   1.0000
   H    H   0.1758   0.2874   0.4099   1.0000
   H    H   0.2464   0.4295   0.4290   1.0000
   H    H  -0.4518   0.0953   0.3539   1.0000
   H    H  -0.3662   0.0756   0.4030   1.0000
   H    H  -0.3834  -0.0393   0.3871   1.0000
   H    H   0.0156   0.4128   0.4376   1.0000
   H    H   0.2902   0.1295  -0.4770   1.0000
   H    H   0.2943  -0.4309   0.4558   1.0000
   H    H   0.2272  -0.4446   0.4988   1.0000
   H    H  -0.0999   0.4596   0.4956   1.0000
   H    H   0.1756   0.1790  -0.4187   1.0000
   H    H   0.4208   0.4826  -0.4515   1.0000
   H    H   0.4764  -0.4866  -0.4951   1.0000
   H    H   0.2277  -0.0124   0.3801   1.0000
   H    H   0.2877  -0.1074   0.4303   1.0000
   H    H  -0.1803   0.3402  -0.4574   1.0000
   H    H   0.0889   0.3661  -0.3808   1.0000
   H    H   0.4577  -0.2357   0.3972   1.0000
   H    H   0.3964  -0.1433   0.3480   1.0000
   H    H   0.3306  -0.2218   0.3685   1.0000
   H    H  -0.2938   0.3848  -0.3984   1.0000
   H    H  -0.0251   0.4108  -0.3226   1.0000
   H    H  -0.2166   0.4202  -0.3310   1.0000
   H    H   0.4056  -0.2405  -0.4531   1.0000
   H    H   0.3370  -0.0611  -0.2980   1.0000
   H    H   0.2929  -0.1648  -0.3739   1.0000
   H    H   0.2474  -0.2764  -0.3295   1.0000
   H    H   0.2217  -0.3042  -0.2775   1.0000
   H    H   0.3996  -0.0529  -0.3859   1.0000
   H    H   0.2883   0.0673  -0.3710   1.0000
   H    H   0.2625   0.0138  -0.4170   1.0000
   H    H   0.1180  -0.0836  -0.3395   1.0000
   H    H   0.1229   0.0467  -0.3398   1.0000
   H    H   0.0962   0.0033  -0.3881   1.0000
   H    H   0.1762   0.0208  -0.2307   1.0000
   H    H   0.2871  -0.0103  -0.2601   1.0000
   H    H   0.3153  -0.1154  -0.1668   1.0000
   H    H   0.4275  -0.1541  -0.1967   1.0000
   H    H   0.3877   0.0537  -0.2092   1.0000
   H    H   0.2814   0.0872  -0.1767   1.0000
   H    H   0.4057  -0.4244  -0.3503   1.0000
   H    H   0.4133  -0.3952  -0.2172   1.0000
   H    H  -0.4048   0.4028  -0.3334   1.0000
   H    H  -0.3976   0.4329  -0.2002   1.0000
   H    H   0.4657   0.0529  -0.1347   1.0000
   H    H   0.4293  -0.0517  -0.1149   1.0000
   H    H  -0.4641  -0.0858  -0.1474   1.0000
   H    H  -0.4086  -0.3129  -0.2624   1.0000
   H    H  -0.3533   0.1930  -0.2426   1.0000
   H    H   0.0092   0.2104  -0.2488   1.0000
   H    H  -0.1685   0.0154  -0.2263   1.0000
   H    H   0.0127   0.0237  -0.2296   1.0000
   H    H  -0.2686  -0.3199  -0.2888   1.0000
   H    H  -0.0611   0.3370   0.2980   1.0000
   H    H  -0.1648   0.2929   0.3739   1.0000
   H    H  -0.2764   0.2474   0.3295   1.0000
   H    H  -0.3042   0.2217   0.2775   1.0000
   H    H  -0.0530   0.3995   0.3858   1.0000
   H    H   0.0671   0.2882   0.3709   1.0000
   H    H   0.0138   0.2625   0.4169   1.0000
   H    H  -0.0836   0.1179   0.3394   1.0000
   H    H   0.0467   0.1229   0.3398   1.0000
   H    H   0.0032   0.0962   0.3881   1.0000
   H    H   0.0208   0.1762   0.2307   1.0000
   H    H  -0.0103   0.2871   0.2601   1.0000
   H    H  -0.1154   0.3153   0.1668   1.0000
   H    H  -0.1541   0.4275   0.1967   1.0000
   H    H   0.0538   0.3877   0.2092   1.0000
   H    H   0.0873   0.2814   0.1767   1.0000
   H    H  -0.4244   0.4057   0.3503   1.0000
   H    H  -0.3952   0.4133   0.2171   1.0000
   H    H   0.4028  -0.4048   0.3334   1.0000
   H    H   0.4329  -0.3976   0.2002   1.0000
   H    H   0.0533   0.4656   0.1347   1.0000
   H    H  -0.0515   0.4289   0.1150   1.0000
   H    H  -0.0856  -0.4642   0.1473   1.0000
   H    H  -0.3129  -0.4086   0.2624   1.0000
   H    H   0.1930  -0.3533   0.2426   1.0000
   H    H   0.2104   0.0092   0.2488   1.0000
   H    H   0.0154  -0.1685   0.2263   1.0000
   H    H   0.0237   0.0127   0.2296   1.0000
   H    H  -0.3199  -0.2686   0.2888   1.0000
   H    H   0.4904   0.2097   0.0001   1.0000
   H    H  -0.4983   0.0461   0.0760   1.0000
   H    H   0.4081  -0.0184   0.0316   1.0000
   H    H   0.3560  -0.0139  -0.0219   1.0000
   H    H  -0.4542   0.2025   0.0944   1.0000
   H    H  -0.3461   0.1601   0.0621   1.0000
   H    H  -0.3334   0.0667   0.1078   1.0000
   H    H  -0.4087  -0.0648   0.0190   1.0000
   H    H  -0.3245   0.0053   0.0140   1.0000
   H    H  -0.3030  -0.0860   0.0614   1.0000
   H    H  -0.4521   0.1423  -0.0882   1.0000
   H    H  -0.4893   0.2164  -0.0455   1.0000
   H    H   0.3533   0.2741  -0.1312   1.0000
   H    H   0.3112   0.3451  -0.0874   1.0000
   H    H   0.4731   0.3971  -0.0886   1.0000
   H    H  -0.4925   0.3318  -0.1340   1.0000
   H    H   0.2693   0.0535   0.0762   1.0000
   H    H   0.1748   0.1918  -0.0576   1.0000
   H    H   0.0713   0.1782   0.0874   1.0000
   H    H  -0.0226   0.3166  -0.0466   1.0000
   H    H   0.3818  -0.4575  -0.1548   1.0000
   H    H   0.3097   0.4693  -0.1740   1.0000
   H    H   0.2750  -0.4654  -0.1283   1.0000
   H    H   0.2006   0.3785   0.0030   1.0000
   H    H  -0.1615   0.2054   0.0115   1.0000
   H    H  -0.2793  -0.4152   0.0558   1.0000
   H    H  -0.3605   0.3223   0.0230   1.0000
   H    H  -0.4194  -0.4884   0.0454   1.0000
   H    H   0.1661   0.4972   0.0448   1.0000
   N    N   0.3082   0.3669   0.4521   1.0000
   N    N   0.2903  -0.1890  -0.2841   1.0000
   N    N  -0.2644  -0.4777  -0.2731   1.0000
   N    N  -0.0788   0.4277  -0.2731   1.0000
   N    N  -0.2193  -0.4105  -0.2825   1.0000
   N    N  -0.1082  -0.4635  -0.2829   1.0000
   N    N  -0.1890   0.2903   0.2841   1.0000
   N    N  -0.4779  -0.2644   0.2733   1.0000
   N    N   0.4272  -0.0782   0.2741   1.0000
   N    N  -0.4104  -0.2194   0.2825   1.0000
   N    N  -0.4642  -0.1076   0.2832   1.0000
   N    N   0.4120   0.1093  -0.0131   1.0000
   N    N   0.0475   0.4360   0.0369   1.0000
   N    N  -0.0833  -0.4188   0.0617   1.0000
   N    N   0.0831  -0.4916   0.0479   1.0000
   N    N   0.0067  -0.4031   0.0629   1.0000
