data_findsym-STRUC-6
# This file was generated by FINDSYM    
# Harold T. Stokes, Branton J. Campbell, Dorian M. Hatch
# Brigham Young University, Provo, Utah, USA
                                        
data_findsym-output                     
                                        
_symmetry_space_group_name_H-M 'P 1'    
_symmetry_Int_Tables_number 1           
                                        
_cell_length_a      16.24100            
_cell_length_b      16.24100            
_cell_length_c      20.93400            
_cell_angle_alpha  105.47600            
_cell_angle_beta    74.52400            
_cell_angle_gamma   81.22400            
                                        
loop_                                   
_space_group_symop_operation_xyz        
x,y,z                                   
                                        
loop_                                   
_atom_site_label                        
_atom_site_type_symbol                  
_atom_site_fract_x                      
_atom_site_fract_y                      
_atom_site_fract_z                      
_atom_site_occupancy                    
   C    C  -0.3978   0.4229  -0.0944   1.0000
   C    C  -0.3259   0.4029  -0.1654   1.0000
   C    C  -0.3639   0.4053  -0.2253   1.0000
   C    C  -0.4457  -0.4782  -0.0619   1.0000
   C    C   0.4845  -0.4572   0.0078   1.0000
   C    C  -0.2980   0.3485  -0.2971   1.0000
   C    C  -0.3876   0.4999  -0.2260   1.0000
   C    C  -0.3723   0.3272  -0.0234   1.0000
   C    C   0.4922  -0.4025   0.0689   1.0000
   C    C   0.4095  -0.4909   0.0126   1.0000
   C    C  -0.3292   0.3083   0.0294   1.0000
   C    C   0.3513  -0.4137   0.1372   1.0000
   C    C   0.4263  -0.3801   0.1328   1.0000
   C    C   0.3453  -0.4704   0.0757   1.0000
   C    C  -0.3247   0.2136   0.0293   1.0000
   C    C   0.2807  -0.3901   0.2052   1.0000
   C    C   0.4878  -0.3891  -0.2163   1.0000
   C    C   0.2397  -0.3018   0.2444   1.0000
   C    C   0.2537  -0.4562   0.2313   1.0000
   C    C  -0.2943   0.1968   0.0891   1.0000
   C    C  -0.4951  -0.3917  -0.2921   1.0000
   C    C   0.1728  -0.2801   0.3078   1.0000
   C    C   0.1869  -0.4344   0.2946   1.0000
   C    C   0.1463  -0.3461   0.3331   1.0000
   C    C   0.1862   0.1747  -0.4747   1.0000
   C    C   0.1020   0.1412  -0.4547   1.0000
   C    C   0.0626   0.1594  -0.3751   1.0000
   C    C   0.1655   0.2763  -0.4553   1.0000
   C    C   0.2468   0.3103  -0.4751   1.0000
   C    C   0.0079   0.0941  -0.3588   1.0000
   C    C   0.0037   0.2527  -0.3397   1.0000
   C    C   0.3108   0.0736   0.4230   1.0000
   C    C   0.2590   0.3530   0.4746   1.0000
   C    C   0.3106   0.3011  -0.4420   1.0000
   C    C   0.3526   0.0401   0.3430   1.0000
   C    C   0.3958   0.3786   0.4916   1.0000
   C    C   0.3320   0.3875   0.4584   1.0000
   C    C   0.3843   0.3343  -0.4586   1.0000
   C    C   0.4201  -0.0475   0.3201   1.0000
   C    C   0.4736   0.4151   0.4747   1.0000
   C    C  -0.0116   0.3898  -0.2508   1.0000
   C    C   0.4638  -0.4953   0.4811   1.0000
   C    C  -0.4412   0.3609   0.4524   1.0000
   C    C   0.4734  -0.0766   0.2419   1.0000
   C    C  -0.0874   0.3883  -0.1900   1.0000
   C    C  -0.4628  -0.4610   0.4659   1.0000
   C    C  -0.3679   0.3953   0.4369   1.0000
   C    C  -0.3784   0.4845   0.4438   1.0000
   C    C   0.4330   0.0861  -0.0476   1.0000
   C    C   0.4297   0.1436   0.0255   1.0000
   C    C  -0.4851   0.1739  -0.1171   1.0000
   C    C   0.3761   0.1449  -0.1311   1.0000
   C    C   0.4043   0.0998   0.0825   1.0000
   C    C   0.3649   0.2325   0.0460   1.0000
   C    C   0.2973   0.1036  -0.1148   1.0000
   C    C  -0.4922   0.0003  -0.0800   1.0000
   C    C  -0.4025   0.1052  -0.1667   1.0000
   C    C   0.3013   0.0291  -0.1796   1.0000
   C    C   0.2279  -0.0181  -0.1622   1.0000
   C    C  -0.3282   0.0882  -0.1460   1.0000
   C    C  -0.4000   0.0562  -0.2340   1.0000
   C    C  -0.2513  -0.0241  -0.2576   1.0000
   C    C  -0.2534   0.0242  -0.1909   1.0000
   C    C  -0.3254  -0.0077  -0.2788   1.0000
   C    C   0.2347  -0.0961  -0.2247   1.0000
   C    C  -0.1707  -0.0915  -0.3065   1.0000
   C    C  -0.1554  -0.1793  -0.3053   1.0000
   C    C  -0.1084  -0.0681  -0.3543   1.0000
   C    C  -0.0774  -0.2407  -0.3516   1.0000
   C    C  -0.0316  -0.1295  -0.3998   1.0000
   C    C  -0.2214  -0.2080  -0.2554   1.0000
   C    C  -0.0161  -0.2157  -0.3982   1.0000
   C    C   0.0859   0.4330   0.0475   1.0000
   C    C   0.1437   0.4298  -0.0255   1.0000
   C    C   0.1717  -0.4846   0.1176   1.0000
   C    C   0.1450   0.3758   0.1312   1.0000
   C    C   0.0998   0.4043  -0.0826   1.0000
   C    C   0.2324   0.3649  -0.0460   1.0000
   C    C   0.1036   0.2973   0.1148   1.0000
   C    C   0.0002  -0.4922   0.0801   1.0000
   C    C   0.1050  -0.4023   0.1666   1.0000
   C    C   0.0290   0.3013   0.1796   1.0000
   C    C  -0.0181   0.2279   0.1622   1.0000
   C    C   0.0882  -0.3282   0.1460   1.0000
   C    C   0.0558  -0.4003   0.2337   1.0000
   C    C  -0.0241  -0.2515   0.2576   1.0000
   C    C   0.0242  -0.2534   0.1908   1.0000
   C    C  -0.0079  -0.3253   0.2786   1.0000
   C    C  -0.0961   0.2348   0.2248   1.0000
   C    C  -0.0915  -0.1708   0.3065   1.0000
   C    C  -0.1793  -0.1554   0.3053   1.0000
   C    C  -0.0681  -0.1084   0.3543   1.0000
   C    C  -0.2407  -0.0773   0.3516   1.0000
   C    C  -0.1294  -0.0316   0.3998   1.0000
   C    C  -0.2080  -0.2214   0.2554   1.0000
   C    C  -0.2157  -0.0161   0.3982   1.0000
   O    O  -0.4753  -0.4753  -0.2141   1.0000
   O    O  -0.3377  -0.4521  -0.2351   1.0000
   O    O  -0.4201   0.2824  -0.0437   1.0000
   O    O  -0.2670   0.1087   0.0762   1.0000
   O    O  -0.2940   0.2513   0.1415   1.0000
   O    O   0.0367   0.2998  -0.2936   1.0000
   O    O  -0.0637   0.2826  -0.3506   1.0000
   O    O   0.3472   0.0478   0.4614   1.0000
   O    O  -0.4866  -0.1637   0.2187   1.0000
   O    O   0.4815  -0.0311   0.2040   1.0000
   O    O   0.4988  -0.0495  -0.1405   1.0000
   O    O   0.3831   0.1864  -0.1735   1.0000
   O    O  -0.4344  -0.0247  -0.0575   1.0000
   O    O  -0.0495   0.4988   0.1405   1.0000
   O    O   0.1863   0.3832   0.1734   1.0000
   O    O  -0.0247  -0.4344   0.0575   1.0000
   H    H  -0.4470   0.3834  -0.1019   1.0000
   H    H  -0.2827   0.3378  -0.1791   1.0000
   H    H  -0.2826   0.4493  -0.1610   1.0000
   H    H  -0.4246   0.3808  -0.2167   1.0000
   H    H  -0.4763  -0.4583  -0.0980   1.0000
   H    H  -0.3969  -0.4384  -0.0568   1.0000
   H    H  -0.3181   0.4335  -0.0274   1.0000
   H    H  -0.2368   0.3704  -0.3081   1.0000
   H    H  -0.2812   0.2796  -0.2995   1.0000
   H    H  -0.3256   0.3506  -0.3392   1.0000
   H    H  -0.4488  -0.3762   0.0662   1.0000
   H    H   0.4022   0.4656  -0.0350   1.0000
   H    H  -0.2629   0.3207   0.0177   1.0000
   H    H  -0.3671   0.3553   0.0817   1.0000
   H    H   0.4329  -0.3365   0.1801   1.0000
   H    H   0.2884  -0.4965   0.0787   1.0000
   H    H  -0.3895   0.1979   0.0346   1.0000
   H    H  -0.2806   0.1660  -0.0208   1.0000
   H    H  -0.4845  -0.3392  -0.1872   1.0000
   H    H   0.4176  -0.3790  -0.1878   1.0000
   H    H   0.2607  -0.2497   0.2245   1.0000
   H    H   0.2852   0.4744   0.2008   1.0000
   H    H   0.4810  -0.4447  -0.3209   1.0000
   H    H  -0.4246  -0.4034  -0.3195   1.0000
   H    H   0.4717  -0.3297  -0.2952   1.0000
   H    H   0.1408  -0.2109   0.3378   1.0000
   H    H   0.1657  -0.4864   0.3141   1.0000
   H    H   0.0930  -0.3290   0.3827   1.0000
   H    H  -0.2489   0.0968   0.1140   1.0000
   H    H   0.2310   0.1538  -0.4468   1.0000
   H    H   0.1172   0.0703  -0.4815   1.0000
   H    H   0.0519   0.1704  -0.4746   1.0000
   H    H   0.1167   0.1541  -0.3523   1.0000
   H    H   0.1318   0.3064  -0.3988   1.0000
   H    H   0.1183   0.2980  -0.4805   1.0000
   H    H   0.2031   0.1557   0.4171   1.0000
   H    H  -0.0470   0.0971  -0.3800   1.0000
   H    H   0.0484   0.0266  -0.3814   1.0000
   H    H  -0.0199   0.1074  -0.3021   1.0000
   H    H   0.2100   0.3599   0.4477   1.0000
   H    H   0.3021   0.2676  -0.4024   1.0000
   H    H   0.3019   0.0331   0.3174   1.0000
   H    H   0.3837   0.0900   0.3265   1.0000
   H    H   0.3406   0.4216   0.4193   1.0000
   H    H   0.4338   0.3272  -0.4324   1.0000
   H    H   0.4664  -0.0432   0.3502   1.0000
   H    H   0.3884  -0.0998   0.3309   1.0000
   H    H  -0.0342   0.4246  -0.2839   1.0000
   H    H   0.0398   0.4171  -0.2337   1.0000
   H    H   0.3974  -0.4525   0.4986   1.0000
   H    H  -0.4331   0.2908   0.4469   1.0000
   H    H  -0.0638   0.3493  -0.1601   1.0000
   H    H  -0.1366   0.3592  -0.2086   1.0000
   H    H  -0.1205   0.4548  -0.1540   1.0000
   H    H  -0.4711  -0.3911   0.4714   1.0000
   H    H  -0.3019   0.3524   0.4193   1.0000
   H    H  -0.3207  -0.4884   0.4319   1.0000
   H    H  -0.4511  -0.1831   0.1697   1.0000
   H    H   0.3715   0.0631  -0.0415   1.0000
   H    H   0.4960   0.1541   0.0212   1.0000
   H    H  -0.4737   0.2093  -0.0696   1.0000
   H    H   0.4985   0.2234  -0.1421   1.0000
   H    H   0.4487   0.0360   0.0696   1.0000
   H    H   0.3368   0.0903   0.0918   1.0000
   H    H   0.4062   0.1419   0.1328   1.0000
   H    H   0.3837   0.2668   0.0080   1.0000
   H    H   0.2973   0.2253   0.0498   1.0000
   H    H   0.3615   0.2756   0.0969   1.0000
   H    H   0.2341   0.1534  -0.0959   1.0000
   H    H   0.2979   0.0784  -0.0716   1.0000
   H    H   0.2967   0.0553  -0.2225   1.0000
   H    H   0.3661  -0.0184  -0.1999   1.0000
   H    H   0.2300  -0.0408  -0.1172   1.0000
   H    H   0.1629   0.0287  -0.1447   1.0000
   H    H  -0.3299   0.1263  -0.0937   1.0000
   H    H  -0.4575   0.0693  -0.2509   1.0000
   H    H  -0.1956   0.0113  -0.1740   1.0000
   H    H  -0.3240  -0.0457  -0.3311   1.0000
   H    H   0.1823  -0.1299  -0.2122   1.0000
   H    H   0.2303  -0.0752  -0.2698   1.0000
   H    H   0.2980  -0.1448  -0.2422   1.0000
   H    H  -0.4456  -0.0897  -0.1721   1.0000
   H    H  -0.1205  -0.0005  -0.3555   1.0000
   H    H  -0.0659  -0.3082  -0.3503   1.0000
   H    H   0.0167  -0.1099  -0.4366   1.0000
   H    H   0.0444  -0.2637  -0.4338   1.0000
   H    H  -0.3955  -0.1970  -0.1444   1.0000
   H    H   0.0631   0.3715   0.0415   1.0000
   H    H   0.1540   0.4960  -0.0212   1.0000
   H    H   0.2087  -0.4729   0.0690   1.0000
   H    H   0.2223   0.4985   0.1424   1.0000
   H    H   0.0360   0.4487  -0.0695   1.0000
   H    H   0.0903   0.3368  -0.0918   1.0000
   H    H   0.1420   0.4061  -0.1328   1.0000
   H    H   0.2668   0.3836  -0.0080   1.0000
   H    H   0.2254   0.2973  -0.0498   1.0000
   H    H   0.2756   0.3614  -0.0969   1.0000
   H    H   0.1534   0.2341   0.0959   1.0000
   H    H   0.0784   0.2979   0.0717   1.0000
   H    H   0.0553   0.2967   0.2225   1.0000
   H    H  -0.0185   0.3661   0.1999   1.0000
   H    H  -0.0408   0.2301   0.1172   1.0000
   H    H   0.0287   0.1629   0.1447   1.0000
   H    H   0.1264  -0.3298   0.0935   1.0000
   H    H   0.0691  -0.4574   0.2507   1.0000
   H    H   0.0114  -0.1956   0.1740   1.0000
   H    H  -0.0457  -0.3240   0.3311   1.0000
   H    H  -0.1299   0.1824   0.2122   1.0000
   H    H  -0.0752   0.2303   0.2698   1.0000
   H    H  -0.1448   0.2979   0.2422   1.0000
   H    H  -0.0898  -0.4456   0.1721   1.0000
   H    H  -0.0004  -0.1205   0.3555   1.0000
   H    H  -0.3083  -0.0659   0.3503   1.0000
   H    H  -0.1099   0.0167   0.4366   1.0000
   H    H  -0.2637   0.0444   0.4338   1.0000
   H    H  -0.1970  -0.3955   0.1444   1.0000
   N    N  -0.3569   0.3948  -0.0461   1.0000
   N    N   0.2317   0.1336   0.4496   1.0000
   N    N   0.4378   0.1344  -0.0990   1.0000
   N    N  -0.3014  -0.1600  -0.2143   1.0000
   N    N  -0.2054  -0.2890  -0.2475   1.0000
   N    N  -0.3315  -0.2145  -0.1823   1.0000
   N    N  -0.2759  -0.2925  -0.2008   1.0000
   N    N   0.1345   0.4380   0.0987   1.0000
   N    N  -0.1601  -0.3014   0.2142   1.0000
   N    N  -0.2890  -0.2054   0.2476   1.0000
   N    N  -0.2144  -0.3316   0.1822   1.0000
   N    N  -0.2927  -0.2760   0.2009   1.0000
